/*--------------------------------*- C++ -*----------------------------------*\
  =========                 |
  \\      /  F ield         | OpenFOAM: The Open Source CFD Toolbox
   \\    /   O peration     | Website:  https://openfoam.org
    \\  /    A nd           | Version:  13
     \\/     M anipulation  |
\*---------------------------------------------------------------------------*/
FoamFile
{
    format      ascii;
    class       polyBoundaryMesh;
    location    "0/polyMesh";
    object      boundary;
}
// * * * * * * * * * * * * * * * * * * * * * * * * * * * * * * * * * * * * * //

7
(
    front
    {
        type            patch;
        nFaces          600;
        startFace       444288;
    }
    back
    {
        type            patch;
        nFaces          600;
        startFace       444888;
    }
    inlet
    {
        type            patch;
        nFaces          450;
        startFace       445488;
    }
    outlet
    {
        type            patch;
        nFaces          450;
        startFace       445938;
    }
    lower
    {
        type            patch;
        nFaces          1200;
        startFace       446388;
    }
    upper
    {
        type            patch;
        nFaces          1200;
        startFace       447588;
    }
    aircraftModel
    {
        type            wall;
        inGroups        List<word> 1(wall);
        nFaces          17004;
        startFace       448788;
    }
)

// ************************************************************************* //
