/*--------------------------------*- C++ -*----------------------------------*\
  =========                 |
  \\      /  F ield         | OpenFOAM: The Open Source CFD Toolbox
   \\    /   O peration     | Website:  https://openfoam.org
    \\  /    A nd           | Version:  13
     \\/     M anipulation  |
\*---------------------------------------------------------------------------*/
FoamFile
{
    format      ascii;
    class       featureEdgeMesh;
    location    "constant/geometry";
    object      aircraftModel.eMesh;
}
// * * * * * * * * * * * * * * * * * * * * * * * * * * * * * * * * * * * * * //


// points:

29116
(
(0.614294 0.000787305 -0.0651674)
(0.603572 0.0196793 -0.0656052)
(-0.00452995 0.0365138 -0.0656762)
(0.573605 -0.0550064 -0.0589995)
(0.00178861 0.0575464 -0.0594549)
(0.63389 -0.0412893 -0.0521137)
(0.666977 -0.0277962 -0.0519854)
(0.68677 -0.0144005 -0.0525368)
(0.574507 0.0601267 -0.0563861)
(0.710377 0.00738483 -0.0459914)
(0.681914 0.0327287 -0.0458798)
(-0.0115893 0.0707885 -0.0458426)
(-0.0106639 -0.0725387 -0.0416718)
(0.718797 -0.0131114 -0.0406289)
(0.724086 0.0076992 -0.0393949)
(0.717264 0.0194976 -0.0389752)
(-0.104399 0.0299113 -0.0389092)
(-0.0447336 0.0635997 -0.0389597)
(-0.0109119 -0.0781969 -0.0348989)
(-0.0930168 -0.050024 -0.0316222)
(0.676788 -0.0452669 -0.0313578)
(0.70111 -0.0323939 -0.0360587)
(0.72107 -0.0190861 -0.0354683)
(0.72716 -0.0119407 -0.0349046)
(0.726893 0.0170739 -0.0311618)
(-0.0978308 0.0498212 -0.031647)
(-0.044324 0.0703436 -0.032871)
(0.573575 0.0805424 -0.0349088)
(0.0019569 -0.0847741 -0.0275875)
(0.63032 -0.0653784 -0.0248002)
(0.663682 -0.0521386 -0.0255107)
(0.696939 -0.0387786 -0.0250412)
(0.709131 -0.0314119 -0.028608)
(0.710022 -0.0320553 -0.0250782)
(0.727024 -0.0168682 -0.0302021)
(0.734103 -0.0043768 -0.0271801)
(0.73487 0.00675201 -0.0237163)
(0.733692 0.009109 -0.0245312)
(0.692198 0.0416984 -0.0267788)
(-0.1318 0.0439297 -0.0259069)
(-0.097163 0.05661 -0.0261087)
(0.582946 -0.0849747 -0.0187467)
(0.616746 -0.072045 -0.0186622)
(0.650505 -0.0587522 -0.0186632)
(0.683885 -0.0453402 -0.0187157)
(0.726289 -0.019741 -0.0211993)
(0.72566 -0.0196992 -0.0176725)
(0.733579 -0.00726056 -0.0207353)
(0.734756 -0.00474527 -0.0215396)
(-0.0734038 0.0678477 -0.0240686)
(0.574028 0.0875676 -0.0216591)
(-0.0516829 -0.0785963 -0.0148376)
(0.603865 -0.0787296 -0.0119267)
(0.637396 -0.0654277 -0.0122327)
(0.721743 -0.021278 -0.0132573)
(0.727092 -0.0148883 -0.0136244)
(0.733656 0.00643995 -0.0181186)
(-0.210141 0.0153031 -0.0128175)
(0.704106 0.0351329 -0.0124516)
(0.695634 0.0407579 -0.0166271)
(0.599481 0.0819754 -0.0135253)
(0.129612 -0.316184 -0.00745398)
(0.280424 -0.321877 -0.00599832)
(0.283494 -0.298152 -0.00407726)
(0.128971 -0.29648 -0.00543544)
(-0.117671 -0.0642203 -0.00789517)
(0.714295 -0.0218301 -0.0052104)
(0.720516 -0.0164349 -0.0064611)
(0.726608 0.0133901 -0.0106627)
(0.720648 0.0207799 -0.00960008)
(0.713799 0.0275501 -0.00920758)
(-0.204415 0.037 -0.00582344)
(0.280292 0.292265 -0.00544034)
(0.283379 0.321802 -0.00379439)
(0.129001 0.323336 -0.005319)
(0.129167 -0.325764 -0.00198803)
(0.280418 -0.329162 -0.000217814)
(0.280662 -0.291774 -0.00208641)
(0.129054 -0.289294 0.000571376)
(-0.000432183 0.0942494 0.00191661)
(0.566898 0.0945597 -0.00074215)
(0.12902 0.288407 -0.00141744)
(0.280646 0.32744 -0.00157152)
(0.202874 -0.472753 0.00910234)
(0.202132 -0.470028 0.00775047)
(0.281415 -0.333608 0.00875099)
(0.2554 -0.10738 0.00730428)
(0.574905 -0.0924159 0.00760459)
(-0.274936 -0.0121466 0.00756874)
(-0.244341 0.0368589 0.00788623)
(0.569428 0.0941744 0.00622492)
(0.255405 0.116407 0.00779716)
(0.347934 0.118479 0.00740921)
(0.301523 0.231736 0.00755688)
(0.28825 0.265126 0.00750565)
(0.247976 0.364836 0.00759193)
(0.227911 0.411483 0.00773162)
(0.162723 0.474027 0.00695752)
(0.0900573 -0.471556 0.0137575)
(0.212096 -0.466569 0.0154059)
(0.227497 -0.424768 0.0117644)
(0.240801 -0.391147 0.0118993)
(0.106055 -0.373999 0.0151602)
(0.108694 -0.37223 0.013581)
(0.107309 -0.371163 0.015479)
(0.254734 -0.357683 0.011945)
(0.113454 -0.35464 0.0153167)
(-0.796302 -0.321134 0.0150001)
(-0.797801 -0.316196 0.0122677)
(-0.798333 -0.296663 0.0144475)
(0.287732 -0.278043 0.0123719)
(0.141066 -0.272837 0.014943)
(0.146768 -0.261559 0.0150101)
(0.149333 -0.259649 0.0134213)
(0.147808 -0.257906 0.0155567)
(0.154502 -0.243481 0.0148455)
(0.300975 -0.24468 0.012034)
(0.155262 -0.240209 0.0139417)
(0.161635 -0.219747 0.0136919)
(0.314251 -0.211221 0.0120625)
(0.168124 -0.199604 0.0137161)
(0.327533 -0.177919 0.012054)
(0.174729 -0.179462 0.0137021)
(0.340807 -0.144291 0.0120314)
(0.179675 -0.140652 0.0132448)
(0.3542 -0.110576 0.0122302)
(0.661002 0.0482453 0.0111794)
(0.627532 0.0677984 0.0112562)
(0.00215022 0.0942695 0.00893209)
(0.354494 0.116889 0.0147753)
(0.341272 0.143103 0.0109281)
(0.180184 0.145659 0.013696)
(0.182434 0.14744 0.0127514)
(0.334881 0.156013 0.00992209)
(0.181404 0.161136 0.0141168)
(0.182239 0.161161 0.0142715)
(0.334513 0.163448 0.0153006)
(0.174917 0.181232 0.0142074)
(0.175637 0.18122 0.0143563)
(0.321553 0.189381 0.00985067)
(0.168124 0.201383 0.0147148)
(0.16895 0.201131 0.0146751)
(0.321235 0.196729 0.0152535)
(0.160479 0.223872 0.016068)
(0.165796 0.216868 0.0139587)
(0.308186 0.222527 0.00994241)
(0.154606 0.23414 0.0140693)
(0.155423 0.234198 0.0142462)
(0.307612 0.23008 0.0153114)
(0.146028 0.256289 0.0161026)
(0.294969 0.255866 0.00992096)
(0.294516 0.263803 0.015266)
(0.141207 0.275026 0.0148439)
(0.142302 0.274857 0.0148441)
(-0.79832 0.317236 0.0139945)
(0.280578 0.33364 0.0119243)
(0.114727 0.351444 0.0157356)
(0.106 0.369587 0.0159178)
(0.254477 0.363983 0.0151689)
(0.227498 0.430835 0.0155493)
(0.0928504 0.448652 0.0143093)
(0.0972791 0.447215 0.0134998)
(0.0855866 0.469369 0.0141163)
(0.214175 0.464295 0.015467)
(0.0895543 0.4743 0.0137276)
(0.207821 0.47292 0.0128218)
(0.209065 0.474227 0.0160668)
(0.206123 0.475743 0.0140779)
(0.0762605 -0.472975 0.0204429)
(0.073781 -0.470479 0.0210579)
(0.0883183 -0.476708 0.0223198)
(0.0734194 -0.467532 0.020602)
(0.0754456 -0.465413 0.0195254)
(0.215104 -0.462238 0.0202972)
(0.0873034 -0.433682 0.0200811)
(0.228267 -0.42844 0.0200076)
(0.105979 -0.373366 0.0179242)
(0.114205 -0.349795 0.0194489)
(-0.802481 -0.299049 0.02016)
(-0.800951 -0.294882 0.0200502)
(0.141075 -0.272874 0.0158352)
(0.146475 -0.260196 0.0180274)
(0.301671 -0.248885 0.0205076)
(0.161017 -0.227896 0.0190524)
(0.314785 -0.215165 0.0204958)
(0.167706 -0.207986 0.0190683)
(0.174471 -0.187919 0.0191169)
(0.328082 -0.18186 0.0204105)
(0.180879 -0.168225 0.0191657)
(0.33465 -0.163968 0.0163122)
(0.335636 -0.163351 0.0197114)
(0.341302 -0.14823 0.020423)
(0.348304 -0.131026 0.0157735)
(0.349146 -0.130257 0.0192361)
(0.354487 -0.114876 0.020476)
(-0.307907 -0.011822 0.0206718)
(0.67676 -0.0114934 0.0200854)
(-0.309961 0.00843063 0.0203052)
(-0.214949 0.0543181 0.0216403)
(-0.1823 0.0614386 0.0213176)
(-0.0374361 0.0879436 0.0168622)
(0.341167 0.148791 0.0174194)
(0.341021 0.149059 0.0217437)
(0.327463 0.182252 0.021797)
(0.160861 0.222365 0.0180908)
(0.313999 0.215627 0.0218062)
(0.162043 0.223371 0.0207775)
(0.146481 0.255247 0.0181279)
(0.300694 0.248785 0.0216195)
(0.148243 0.256649 0.020746)
(-0.798305 0.294024 0.0175172)
(-0.800948 0.319178 0.019716)
(0.106501 0.368479 0.0179496)
(0.108269 0.369838 0.0205481)
(0.073778 0.4701 0.0211733)
(0.0737661 0.472766 0.0205943)
(0.0759259 0.474662 0.0211215)
(0.0886808 0.477164 0.0217663)
(0.0871442 -0.474999 0.025395)
(0.207217 -0.473324 0.0253023)
(0.0849712 -0.466964 0.0269646)
(0.209126 -0.470102 0.0273512)
(0.241276 -0.394777 0.0264998)
(0.254492 -0.361538 0.0265328)
(-0.798304 -0.325895 0.0248961)
(0.335478 -0.160411 0.0259349)
(0.341271 -0.147197 0.0236805)
(0.354479 -0.113852 0.023676)
(0.654155 -0.0292389 0.0275622)
(-0.323314 0.00871861 0.0268675)
(0.614562 0.0674114 0.0249284)
(0.575055 0.0880894 0.0252627)
(0.328065 0.180236 0.0235049)
(0.314641 0.213625 0.0235401)
(0.301257 0.246745 0.0233334)
(0.255477 0.359973 0.0247978)
(0.228434 0.426306 0.0246017)
(0.215218 0.459768 0.0244851)
(0.0745556 0.472661 0.0219157)
(0.0985564 -0.473245 0.0323634)
(0.0997373 -0.469894 0.033657)
(0.208433 -0.467427 0.030768)
(0.118697 -0.406119 0.0340308)
(0.241951 -0.386871 0.0320232)
(0.139001 -0.35241 0.0339109)
(0.255152 -0.349326 0.0343771)
(-0.798739 -0.326605 0.0323179)
(-0.800867 -0.323687 0.0345412)
(0.17205 -0.259469 0.0339968)
(0.19888 -0.186038 0.0341193)
(-0.310402 -0.0252547 0.0317506)
(0.643905 -0.0252352 0.0341743)
(-0.319263 -0.0190533 0.0303744)
(-0.334688 -0.0109441 0.0346565)
(-0.331351 0.012786 0.0334897)
(-0.326654 0.0180587 0.0339774)
(-0.294967 0.0345859 0.0343709)
(-0.274444 0.0409389 0.0346166)
(-0.104618 0.074418 0.0300161)
(-0.0516811 0.0812845 0.0304102)
(0.00198345 0.0875268 0.0302766)
(0.354139 0.113011 0.0291114)
(0.347498 0.126436 0.0296911)
(-0.801318 0.295698 0.0364197)
(0.246073 0.369059 0.0348642)
(0.23292 0.40244 0.0350353)
(0.220601 0.439359 0.0289414)
(0.0989886 0.473541 0.0333943)
(0.207264 0.473076 0.0293321)
(0.116601 -0.472864 0.0399912)
(0.115849 -0.470092 0.0413046)
(0.197562 -0.465483 0.0416029)
(-0.798311 -0.322054 0.0410841)
(-0.798027 -0.292932 0.0367373)
(0.307641 -0.195917 0.040946)
(-0.254499 -0.0456091 0.0396417)
(-0.316655 -0.0260127 0.0403247)
(-0.345585 -0.00308777 0.0429783)
(-0.343971 0.0054764 0.0412263)
(-0.340201 0.0114803 0.0403949)
(-0.326605 0.0199452 0.0364459)
(-0.31435 0.0280808 0.0413021)
(-0.131786 0.0678589 0.0371558)
(-0.798871 0.293576 0.0387859)
(-0.80018 0.296696 0.0408039)
(-0.802468 0.305828 0.0394139)
(-0.79739 0.322521 0.0410386)
(0.198884 0.468614 0.0411118)
(0.201169 0.472958 0.0368058)
(0.170884 -0.471995 0.047275)
(0.149294 -0.470071 0.0472469)
(-0.798001 -0.314047 0.0466739)
(-0.801155 -0.306327 0.0444437)
(-0.798122 -0.298146 0.0441921)
(0.581185 -0.0693932 0.04781)
(0.607381 -0.0427599 0.0478585)
(-0.30089 -0.0322317 0.0462689)
(-0.317584 -0.0264033 0.0432246)
(-0.345417 -0.00672931 0.0488836)
(-0.345207 -0.00640755 0.0454012)
(-0.347241 0.000888467 0.0475414)
(-0.339708 0.0132114 0.0430064)
(0.575183 0.0756512 0.0460548)
(-0.796344 0.29591 0.0423509)
(-0.79851 0.304989 0.046634)
(-0.79886 0.319347 0.0426806)
(-0.794854 0.320444 0.0439)
(0.280136 0.334927 0.0448214)
(0.153725 0.472604 0.0472764)
(0.175603 0.471774 0.0468232)
(0.176651 0.474633 0.0457695)
(0.128642 -0.332832 0.0520877)
(-0.798805 -0.307015 0.047572)
(-0.0640072 -0.0608379 0.0538858)
(-0.293582 -0.0320555 0.0520846)
(-0.313792 -0.0257252 0.0524852)
(-0.332933 -0.0182052 0.0499664)
(-0.346058 -0.00440505 0.0510134)
(-0.344584 -0.00329403 0.053703)
(-0.345579 0.0068054 0.0505839)
(-0.337439 0.0147576 0.0512775)
(-0.336309 0.0136087 0.0545905)
(-0.29144 0.034492 0.0501674)
(-0.0199355 0.0663193 0.0553066)
(0.21517 0.260949 0.0468524)
(0.208227 0.274951 0.0466164)
(0.12888 0.287054 0.0521433)
(0.12922 0.333561 0.049809)
(0.280565 0.330302 0.0540392)
(0.280614 -0.332146 0.0566852)
(0.128947 -0.328422 0.0606224)
(0.129179 -0.286255 0.0563314)
(0.280714 -0.289134 0.0614185)
(0.590303 -0.0319653 0.0606147)
(-0.327694 0.0108744 0.0606149)
(-0.318084 0.0207673 0.0574899)
(-0.304179 0.0268136 0.0565922)
(-0.0123279 0.0574922 0.0615304)
(0.574253 0.0584593 0.0596899)
(0.280666 0.287777 0.0566317)
(0.129083 0.29151 0.0609946)
(0.280634 -0.325968 0.0639554)
(0.12884 -0.321449 0.0669084)
(0.283504 -0.319643 0.0658027)
(0.129325 -0.292215 0.0635107)
(0.280576 -0.29582 0.0677143)
(0.574171 -0.0508256 0.0617606)
(-0.144861 -0.0347159 0.0674114)
(0.576679 -0.0312435 0.0674165)
(0.573838 0.0362686 0.0676382)
(0.27879 0.293064 0.0663634)
(0.282737 0.294586 0.0655429)
(0.128896 0.297928 0.0673519)
(0.129268 0.327126 0.0635227)
(0.281533 -0.317224 0.0687415)
(0.128664 -0.300892 0.0682374)
(0.132296 -0.300007 0.0695243)
(0.281287 0.296603 0.0686042)
(0.128692 0.319017 0.0680912)
(0.132357 0.319937 0.0694508)
(0.278553 0.319503 0.069376)
(-0.158788 0.00106356 0.074169)
(0.581944 0.0586432 -0.0531732)
(0.192939 -0.340865 0.00751528)
(0.18767 -0.336989 0.00676084)
(0.262857 -0.0947999 0.00721087)
(0.263955 -0.0922376 0.00598398)
(0.206371 0.275527 0.0078787)
(0.134293 -0.385872 0.0135097)
(0.203334 0.106683 0.0207134)
(0.130618 -0.339403 0.0274056)
(0.15181 -0.279182 0.0287138)
(0.152937 -0.276358 0.0270761)
(0.213462 0.0917612 0.027399)
(0.156625 0.2748 0.027528)
(0.232963 0.085357 0.0348699)
(0.184682 -0.279095 0.042391)
(0.272074 -0.277265 0.041604)
(0.253277 -0.0832313 0.0402003)
(0.252354 -0.0809313 0.0400916)
(0.196937 -0.339914 0.0478648)
(0.287346 -0.0862021 0.047706)
(0.342482 -0.0755425 0.0473193)
(0.279641 0.0773604 0.0475503)
(0.193367 0.338692 0.0479332)
(0.218695 0.341315 0.0468894)
(0.188093 0.327659 0.058232)
(-0.00379898 -0.0356677 -0.0646638)
(-0.00881144 -0.0335045 -0.0637017)
(-0.00436907 -0.0294952 -0.0667308)
(0.00141234 -0.0307272 -0.0674694)
(0.00287368 -0.0355867 -0.0658162)
(0.00797227 -0.030951 -0.0677117)
(0.00965155 -0.0356656 -0.0659742)
(0.0147535 -0.0309361 -0.0676413)
(0.0164833 -0.0356357 -0.065879)
(0.0214914 -0.0308908 -0.0675718)
(0.0232245 -0.035559 -0.0658298)
(0.0281661 -0.0308733 -0.0675609)
(0.0299007 -0.0355285 -0.0658287)
(0.0348262 -0.0308775 -0.0675662)
(0.0365639 -0.0355334 -0.0658333)
(0.0414903 -0.0308828 -0.0675681)
(0.0432294 -0.0355395 -0.0658341)
(0.0481569 -0.0308837 -0.0675679)
(0.0498961 -0.0355401 -0.0658339)
(0.0548237 -0.0308832 -0.0675678)
(0.0565628 -0.0355397 -0.0658338)
(0.0614904 -0.0308831 -0.0675678)
(0.0632295 -0.0355396 -0.0658338)
(0.0681571 -0.0308831 -0.0675678)
(0.0698961 -0.0355396 -0.0658338)
(0.0748237 -0.0308831 -0.0675678)
(0.0765628 -0.0355396 -0.0658338)
(0.0814904 -0.0308831 -0.0675678)
(0.0832295 -0.0355396 -0.0658338)
(0.0881571 -0.0308831 -0.0675678)
(0.0898962 -0.0355396 -0.0658338)
(0.0948238 -0.0308831 -0.0675678)
(0.0965629 -0.0355396 -0.0658338)
(0.101491 -0.0308831 -0.0675678)
(0.10323 -0.0355396 -0.0658338)
(0.108157 -0.0308831 -0.0675678)
(0.109896 -0.0355396 -0.0658338)
(0.114824 -0.0308831 -0.0675678)
(0.116563 -0.0355396 -0.0658338)
(0.121491 -0.0308831 -0.0675678)
(0.12323 -0.0355396 -0.0658338)
(0.128157 -0.0308831 -0.0675678)
(0.129896 -0.0355396 -0.0658338)
(0.134824 -0.0308831 -0.0675678)
(0.136563 -0.0355396 -0.0658338)
(0.141491 -0.0308831 -0.0675678)
(0.14323 -0.0355396 -0.0658338)
(0.148157 -0.0308831 -0.0675678)
(0.149896 -0.0355396 -0.0658338)
(0.154824 -0.0308831 -0.0675678)
(0.156563 -0.0355396 -0.0658338)
(0.161491 -0.0308831 -0.0675678)
(0.16323 -0.0355396 -0.0658338)
(0.168157 -0.0308831 -0.0675678)
(0.169896 -0.0355396 -0.0658338)
(0.174824 -0.0308831 -0.0675678)
(0.176563 -0.0355396 -0.0658338)
(0.181491 -0.0308831 -0.0675678)
(0.18323 -0.0355396 -0.0658338)
(0.188157 -0.0308831 -0.0675678)
(0.189896 -0.0355396 -0.0658338)
(0.194824 -0.0308831 -0.0675678)
(0.196563 -0.0355396 -0.0658338)
(0.201491 -0.0308831 -0.0675678)
(0.20323 -0.0355396 -0.0658338)
(0.208157 -0.0308831 -0.0675678)
(0.209896 -0.0355396 -0.0658338)
(0.214824 -0.0308831 -0.0675678)
(0.216563 -0.0355396 -0.0658338)
(0.221491 -0.0308831 -0.0675678)
(0.22323 -0.0355396 -0.0658338)
(0.228157 -0.0308831 -0.0675678)
(0.229896 -0.0355396 -0.0658338)
(0.234824 -0.0308831 -0.0675678)
(0.236563 -0.0355396 -0.0658338)
(0.241491 -0.0308831 -0.0675678)
(0.24323 -0.0355396 -0.0658338)
(0.248157 -0.0308831 -0.0675678)
(0.249896 -0.0355396 -0.0658338)
(0.254824 -0.0308831 -0.0675678)
(0.256563 -0.0355396 -0.0658338)
(0.261491 -0.0308831 -0.0675678)
(0.26323 -0.0355396 -0.0658338)
(0.268157 -0.0308831 -0.0675678)
(0.269896 -0.0355396 -0.0658338)
(0.274824 -0.0308831 -0.0675678)
(0.276563 -0.0355396 -0.0658338)
(0.281491 -0.0308831 -0.0675678)
(0.28323 -0.0355396 -0.0658338)
(0.288157 -0.0308831 -0.0675678)
(0.289896 -0.0355396 -0.0658338)
(0.294824 -0.0308831 -0.0675678)
(0.296563 -0.0355396 -0.0658338)
(0.301491 -0.0308831 -0.0675678)
(0.30323 -0.0355396 -0.0658338)
(0.308157 -0.0308831 -0.0675678)
(0.309896 -0.0355396 -0.0658338)
(0.314824 -0.0308831 -0.0675678)
(0.316563 -0.0355396 -0.0658338)
(0.321491 -0.0308831 -0.0675678)
(0.32323 -0.0355396 -0.0658338)
(0.328157 -0.0308831 -0.0675678)
(0.329896 -0.0355396 -0.0658338)
(0.334824 -0.0308831 -0.0675678)
(0.336563 -0.0355396 -0.0658338)
(0.341491 -0.0308831 -0.0675678)
(0.34323 -0.0355396 -0.0658338)
(0.348157 -0.0308831 -0.0675678)
(0.349896 -0.0355396 -0.0658338)
(0.354824 -0.0308831 -0.0675678)
(0.356563 -0.0355396 -0.0658338)
(0.361491 -0.0308831 -0.0675678)
(0.36323 -0.0355396 -0.0658338)
(0.368157 -0.0308831 -0.0675678)
(0.369896 -0.0355396 -0.0658338)
(0.374824 -0.0308831 -0.0675678)
(0.376563 -0.0355396 -0.0658338)
(0.381491 -0.0308831 -0.0675678)
(0.38323 -0.0355396 -0.0658338)
(0.388157 -0.0308831 -0.0675678)
(0.389896 -0.0355396 -0.0658338)
(0.394824 -0.0308831 -0.0675678)
(0.396563 -0.0355396 -0.0658338)
(0.401491 -0.0308831 -0.0675678)
(0.40323 -0.0355396 -0.0658338)
(0.408157 -0.0308831 -0.0675678)
(0.409896 -0.0355396 -0.0658338)
(0.414824 -0.0308831 -0.0675678)
(0.416563 -0.0355396 -0.0658338)
(0.421491 -0.0308831 -0.0675678)
(0.42323 -0.0355396 -0.0658338)
(0.428157 -0.0308831 -0.0675678)
(0.429896 -0.0355396 -0.0658338)
(0.434824 -0.0308831 -0.0675678)
(0.436563 -0.0355396 -0.0658338)
(0.441491 -0.0308831 -0.0675678)
(0.44323 -0.0355396 -0.0658338)
(0.448157 -0.0308831 -0.0675678)
(0.449896 -0.0355396 -0.0658338)
(0.454824 -0.0308831 -0.0675678)
(0.456563 -0.0355396 -0.0658338)
(0.461491 -0.0308831 -0.0675678)
(0.46323 -0.0355396 -0.0658338)
(0.468157 -0.0308831 -0.0675678)
(0.469896 -0.0355396 -0.0658338)
(0.474824 -0.0308831 -0.0675678)
(0.476563 -0.0355396 -0.0658338)
(0.481491 -0.0308831 -0.0675678)
(0.48323 -0.0355396 -0.0658338)
(0.488157 -0.0308831 -0.0675678)
(0.489896 -0.0355396 -0.0658338)
(0.494824 -0.0308831 -0.0675678)
(0.496563 -0.0355396 -0.0658338)
(0.501491 -0.0308831 -0.0675678)
(0.50323 -0.0355396 -0.0658338)
(0.508157 -0.0308831 -0.0675678)
(0.509896 -0.0355396 -0.0658338)
(0.514824 -0.0308831 -0.0675679)
(0.516563 -0.0355396 -0.0658339)
(0.521491 -0.0308832 -0.0675678)
(0.52323 -0.0355398 -0.0658339)
(0.528157 -0.0308834 -0.0675668)
(0.529896 -0.0355399 -0.0658331)
(0.534824 -0.0308828 -0.0675655)
(0.536563 -0.0355377 -0.0658316)
(0.541492 -0.0308791 -0.067568)
(0.543231 -0.0355336 -0.0658322)
(0.548159 -0.0308793 -0.0675818)
(0.549894 -0.0355533 -0.0658452)
(0.554825 -0.030912 -0.0676091)
(0.556548 -0.0356261 -0.0658822)
(0.561496 -0.0309567 -0.0676128)
(0.563201 -0.0356143 -0.0659076)
(0.568184 -0.0308567 -0.0674544)
(0.569691 -0.0351659 -0.0658046)
(0.574941 -0.0307777 -0.0668406)
(0.573637 -0.0345144 -0.0656686)
(0.576848 -0.0336213 -0.0654707)
(-0.00981526 -0.0266566 -0.0654814)
(-0.00463575 -0.0232356 -0.0681751)
(0.00103619 -0.0251306 -0.0688369)
(0.00739 -0.025608 -0.0690563)
(0.0140945 -0.0255849 -0.0690165)
(0.0208185 -0.025522 -0.0689462)
(0.0274916 -0.0255048 -0.0689268)
(0.0341498 -0.0255087 -0.0689307)
(0.040813 -0.0255129 -0.0689336)
(0.0474796 -0.0255136 -0.0689337)
(0.0541465 -0.0255132 -0.0689335)
(0.0608132 -0.025513 -0.0689334)
(0.0674799 -0.025513 -0.0689334)
(0.0741465 -0.025513 -0.0689334)
(0.0808132 -0.025513 -0.0689334)
(0.0874799 -0.025513 -0.0689334)
(0.0941467 -0.025513 -0.0689334)
(0.100813 -0.025513 -0.0689334)
(0.10748 -0.025513 -0.0689334)
(0.114147 -0.025513 -0.0689334)
(0.120813 -0.025513 -0.0689334)
(0.12748 -0.025513 -0.0689334)
(0.134147 -0.025513 -0.0689334)
(0.140813 -0.025513 -0.0689334)
(0.14748 -0.025513 -0.0689334)
(0.154147 -0.025513 -0.0689334)
(0.160813 -0.025513 -0.0689334)
(0.16748 -0.025513 -0.0689334)
(0.174147 -0.025513 -0.0689334)
(0.180813 -0.025513 -0.0689334)
(0.18748 -0.025513 -0.0689334)
(0.194147 -0.025513 -0.0689334)
(0.200813 -0.025513 -0.0689334)
(0.20748 -0.025513 -0.0689334)
(0.214147 -0.025513 -0.0689334)
(0.220813 -0.025513 -0.0689334)
(0.22748 -0.025513 -0.0689334)
(0.234147 -0.025513 -0.0689334)
(0.240813 -0.025513 -0.0689334)
(0.24748 -0.025513 -0.0689334)
(0.254147 -0.025513 -0.0689334)
(0.260813 -0.025513 -0.0689334)
(0.26748 -0.025513 -0.0689334)
(0.274147 -0.025513 -0.0689334)
(0.280813 -0.025513 -0.0689334)
(0.28748 -0.025513 -0.0689334)
(0.294147 -0.025513 -0.0689334)
(0.300813 -0.025513 -0.0689334)
(0.30748 -0.025513 -0.0689334)
(0.314147 -0.025513 -0.0689334)
(0.320813 -0.025513 -0.0689334)
(0.32748 -0.025513 -0.0689334)
(0.334147 -0.025513 -0.0689334)
(0.340813 -0.025513 -0.0689334)
(0.34748 -0.025513 -0.0689334)
(0.354147 -0.025513 -0.0689334)
(0.360813 -0.025513 -0.0689334)
(0.36748 -0.025513 -0.0689334)
(0.374147 -0.025513 -0.0689334)
(0.380813 -0.025513 -0.0689334)
(0.38748 -0.025513 -0.0689334)
(0.394147 -0.025513 -0.0689334)
(0.400813 -0.025513 -0.0689334)
(0.40748 -0.025513 -0.0689334)
(0.414147 -0.025513 -0.0689334)
(0.420813 -0.025513 -0.0689334)
(0.42748 -0.025513 -0.0689334)
(0.434147 -0.025513 -0.0689334)
(0.440813 -0.025513 -0.0689334)
(0.44748 -0.025513 -0.0689334)
(0.454147 -0.025513 -0.0689334)
(0.460813 -0.025513 -0.0689334)
(0.46748 -0.025513 -0.0689334)
(0.474147 -0.025513 -0.0689334)
(0.480813 -0.025513 -0.0689334)
(0.48748 -0.025513 -0.0689334)
(0.494147 -0.025513 -0.0689334)
(0.500813 -0.025513 -0.0689334)
(0.50748 -0.025513 -0.0689335)
(0.514147 -0.0255131 -0.0689336)
(0.520813 -0.025513 -0.0689335)
(0.52748 -0.0255129 -0.0689324)
(0.534147 -0.0255129 -0.0689311)
(0.540815 -0.0255116 -0.0689347)
(0.547481 -0.0255084 -0.0689506)
(0.554147 -0.0255154 -0.0689751)
(0.56081 -0.0255455 -0.0689698)
(0.567486 -0.0255322 -0.0688363)
(0.574256 -0.0253495 -0.0684335)
(0.582311 -0.0301441 -0.0659428)
(0.581248 -0.0249552 -0.0677354)
(0.588046 -0.0246587 -0.066908)
(0.589388 -0.0288878 -0.0654292)
(0.592526 -0.0251538 -0.0661276)
(0.593208 -0.0276606 -0.0652408)
(0.596694 -0.0242282 -0.0652774)
(-0.0133074 -0.0220572 -0.0651804)
(-0.0143474 -0.0184786 -0.0655847)
(-0.00999723 -0.0182607 -0.0672858)
(-0.0040047 -0.0175962 -0.0691287)
(0.0010545 -0.0189748 -0.069637)
(0.00740792 -0.0194102 -0.0698503)
(0.0141318 -0.0193463 -0.0698361)
(0.0208708 -0.0192383 -0.0697775)
(0.0275516 -0.0192052 -0.0697553)
(0.0342111 -0.0192074 -0.0697572)
(0.0408741 -0.0192113 -0.0697606)
(0.0475408 -0.0192119 -0.069761)
(0.0542079 -0.0192115 -0.0697607)
(0.0608746 -0.0192114 -0.0697607)
(0.0675412 -0.0192114 -0.0697607)
(0.0742079 -0.0192114 -0.0697607)
(0.0808746 -0.0192114 -0.0697607)
(0.0875413 -0.0192114 -0.0697607)
(0.094208 -0.0192114 -0.0697607)
(0.100875 -0.0192114 -0.0697607)
(0.107541 -0.0192114 -0.0697607)
(0.114208 -0.0192114 -0.0697607)
(0.120875 -0.0192114 -0.0697607)
(0.127541 -0.0192114 -0.0697607)
(0.134208 -0.0192114 -0.0697607)
(0.140875 -0.0192114 -0.0697607)
(0.147541 -0.0192114 -0.0697607)
(0.154208 -0.0192114 -0.0697607)
(0.160875 -0.0192114 -0.0697607)
(0.167541 -0.0192114 -0.0697607)
(0.174208 -0.0192114 -0.0697607)
(0.180875 -0.0192114 -0.0697607)
(0.187541 -0.0192114 -0.0697607)
(0.194208 -0.0192114 -0.0697607)
(0.200875 -0.0192114 -0.0697607)
(0.207541 -0.0192114 -0.0697607)
(0.214208 -0.0192114 -0.0697607)
(0.220875 -0.0192114 -0.0697607)
(0.227541 -0.0192114 -0.0697607)
(0.234208 -0.0192114 -0.0697607)
(0.240875 -0.0192114 -0.0697607)
(0.247541 -0.0192114 -0.0697607)
(0.254208 -0.0192114 -0.0697607)
(0.260875 -0.0192114 -0.0697607)
(0.267541 -0.0192114 -0.0697607)
(0.274208 -0.0192114 -0.0697607)
(0.280875 -0.0192114 -0.0697607)
(0.287541 -0.0192114 -0.0697607)
(0.294208 -0.0192114 -0.0697607)
(0.300875 -0.0192114 -0.0697607)
(0.307541 -0.0192114 -0.0697607)
(0.314208 -0.0192114 -0.0697607)
(0.320875 -0.0192114 -0.0697607)
(0.327541 -0.0192114 -0.0697607)
(0.334208 -0.0192114 -0.0697607)
(0.340875 -0.0192114 -0.0697607)
(0.347541 -0.0192114 -0.0697607)
(0.354208 -0.0192114 -0.0697607)
(0.360875 -0.0192114 -0.0697607)
(0.367541 -0.0192114 -0.0697607)
(0.374208 -0.0192114 -0.0697607)
(0.380875 -0.0192114 -0.0697607)
(0.387541 -0.0192114 -0.0697607)
(0.394208 -0.0192114 -0.0697607)
(0.400875 -0.0192114 -0.0697607)
(0.407541 -0.0192114 -0.0697607)
(0.414208 -0.0192114 -0.0697607)
(0.420875 -0.0192114 -0.0697607)
(0.427541 -0.0192114 -0.0697607)
(0.434208 -0.0192114 -0.0697607)
(0.440875 -0.0192114 -0.0697607)
(0.447541 -0.0192114 -0.0697607)
(0.454208 -0.0192114 -0.0697607)
(0.460875 -0.0192114 -0.0697607)
(0.467541 -0.0192114 -0.0697607)
(0.474208 -0.0192114 -0.0697607)
(0.480875 -0.0192114 -0.0697607)
(0.487541 -0.0192114 -0.0697607)
(0.494208 -0.0192114 -0.0697607)
(0.500875 -0.0192114 -0.0697607)
(0.507541 -0.0192114 -0.0697607)
(0.514208 -0.0192114 -0.0697608)
(0.520875 -0.0192113 -0.0697607)
(0.527542 -0.019211 -0.0697595)
(0.534209 -0.0192109 -0.0697582)
(0.540875 -0.0192113 -0.0697624)
(0.547539 -0.0192116 -0.0697796)
(0.554201 -0.0192133 -0.0698028)
(0.560858 -0.019228 -0.0697908)
(0.567507 -0.0192471 -0.0696586)
(0.574183 -0.0191945 -0.0693168)
(0.58099 -0.0190104 -0.0687595)
(0.58792 -0.018871 -0.0680143)
(0.594955 -0.0193024 -0.0668319)
(0.598488 -0.0199358 -0.0658865)
(-0.0160286 -0.0135953 -0.0658847)
(-0.0110772 -0.0102804 -0.0680966)
(-0.00529986 -0.0121474 -0.0692577)
(0.000941931 -0.012593 -0.0700197)
(0.00748988 -0.0127251 -0.0702519)
(0.0142833 -0.0125963 -0.0702521)
(0.0210504 -0.0124659 -0.0702027)
(0.0277417 -0.0124226 -0.0701808)
(0.0344036 -0.0124238 -0.0701812)
(0.0410665 -0.0124287 -0.0701844)
(0.0477331 -0.0124295 -0.0701851)
(0.0544001 -0.0124292 -0.0701849)
(0.0610669 -0.0124291 -0.0701848)
(0.0677335 -0.0124291 -0.0701848)
(0.0744002 -0.0124291 -0.0701848)
(0.0810668 -0.0124291 -0.0701848)
(0.0877336 -0.0124291 -0.0701848)
(0.0944003 -0.0124291 -0.0701848)
(0.101067 -0.0124291 -0.0701848)
(0.107734 -0.0124291 -0.0701848)
(0.1144 -0.0124291 -0.0701848)
(0.121067 -0.0124291 -0.0701848)
(0.127734 -0.0124291 -0.0701848)
(0.1344 -0.0124291 -0.0701848)
(0.141067 -0.0124291 -0.0701848)
(0.147734 -0.0124291 -0.0701848)
(0.1544 -0.0124291 -0.0701848)
(0.161067 -0.0124291 -0.0701848)
(0.167734 -0.0124291 -0.0701848)
(0.1744 -0.0124291 -0.0701848)
(0.181067 -0.0124291 -0.0701848)
(0.187734 -0.0124291 -0.0701848)
(0.1944 -0.0124291 -0.0701848)
(0.201067 -0.0124291 -0.0701848)
(0.207734 -0.0124291 -0.0701848)
(0.2144 -0.0124291 -0.0701848)
(0.221067 -0.0124291 -0.0701848)
(0.227734 -0.0124291 -0.0701848)
(0.2344 -0.0124291 -0.0701848)
(0.241067 -0.0124291 -0.0701848)
(0.247734 -0.0124291 -0.0701848)
(0.2544 -0.0124291 -0.0701848)
(0.261067 -0.0124291 -0.0701848)
(0.267734 -0.0124291 -0.0701848)
(0.2744 -0.0124291 -0.0701848)
(0.281067 -0.0124291 -0.0701848)
(0.287734 -0.0124291 -0.0701848)
(0.2944 -0.0124291 -0.0701848)
(0.301067 -0.0124291 -0.0701848)
(0.307734 -0.0124291 -0.0701848)
(0.3144 -0.0124291 -0.0701848)
(0.321067 -0.0124291 -0.0701848)
(0.327734 -0.0124291 -0.0701848)
(0.3344 -0.0124291 -0.0701848)
(0.341067 -0.0124291 -0.0701848)
(0.347734 -0.0124291 -0.0701848)
(0.3544 -0.0124291 -0.0701848)
(0.361067 -0.0124291 -0.0701848)
(0.367734 -0.0124291 -0.0701848)
(0.3744 -0.0124291 -0.0701848)
(0.381067 -0.0124291 -0.0701848)
(0.387734 -0.0124291 -0.0701848)
(0.3944 -0.0124291 -0.0701848)
(0.401067 -0.0124291 -0.0701848)
(0.407734 -0.0124291 -0.0701848)
(0.4144 -0.0124291 -0.0701848)
(0.421067 -0.0124291 -0.0701848)
(0.427734 -0.0124291 -0.0701848)
(0.4344 -0.0124291 -0.0701848)
(0.441067 -0.0124291 -0.0701848)
(0.447734 -0.0124291 -0.0701848)
(0.4544 -0.0124291 -0.0701848)
(0.461067 -0.0124291 -0.0701848)
(0.467734 -0.0124291 -0.0701848)
(0.4744 -0.0124291 -0.0701848)
(0.481067 -0.0124291 -0.0701848)
(0.487734 -0.0124291 -0.0701848)
(0.4944 -0.0124291 -0.0701848)
(0.501067 -0.0124291 -0.0701848)
(0.507734 -0.0124291 -0.0701849)
(0.5144 -0.0124291 -0.0701849)
(0.521067 -0.0124289 -0.0701848)
(0.527734 -0.0124285 -0.0701836)
(0.534401 -0.0124287 -0.0701822)
(0.541064 -0.0124311 -0.0701871)
(0.547724 -0.0124354 -0.0702054)
(0.554383 -0.0124384 -0.0702258)
(0.561045 -0.0124421 -0.0702025)
(0.567708 -0.0124512 -0.0700546)
(0.574375 -0.0124397 -0.0697043)
(0.581105 -0.0123675 -0.069175)
(0.587932 -0.0122914 -0.0685785)
(0.594559 -0.0123258 -0.0678615)
(0.600134 -0.016694 -0.0661357)
(0.600839 -0.0116192 -0.0668126)
(0.603653 -0.0135631 -0.0656962)
(-0.0198629 -0.00870539 -0.0652042)
(-0.0201723 -0.00449193 -0.065507)
(-0.0158534 -0.00597471 -0.0669535)
(-0.0108174 -0.00423069 -0.0686165)
(-0.00570258 -0.00553794 -0.0695558)
(0.00073331 -0.00600557 -0.0702316)
(0.00752411 -0.00593685 -0.070493)
(0.0143553 -0.00576707 -0.0704954)
(0.0211194 -0.00565412 -0.0704439)
(0.027809 -0.00562149 -0.0704201)
(0.0344705 -0.00562572 -0.0704193)
(0.0411328 -0.00563182 -0.0704224)
(0.0477991 -0.00563305 -0.0704233)
(0.0544662 -0.00563275 -0.0704231)
(0.0611329 -0.00563261 -0.070423)
(0.0677996 -0.00563261 -0.070423)
(0.0744662 -0.00563262 -0.070423)
(0.0811329 -0.00563262 -0.070423)
(0.0877996 -0.00563262 -0.070423)
(0.0944663 -0.00563262 -0.070423)
(0.101133 -0.00563262 -0.070423)
(0.1078 -0.00563262 -0.070423)
(0.114466 -0.00563262 -0.070423)
(0.121133 -0.00563262 -0.070423)
(0.1278 -0.00563262 -0.070423)
(0.134466 -0.00563262 -0.070423)
(0.141133 -0.00563262 -0.070423)
(0.1478 -0.00563262 -0.070423)
(0.154466 -0.00563262 -0.070423)
(0.161133 -0.00563262 -0.070423)
(0.1678 -0.00563262 -0.070423)
(0.174466 -0.00563262 -0.070423)
(0.181133 -0.00563262 -0.070423)
(0.1878 -0.00563262 -0.070423)
(0.194466 -0.00563262 -0.070423)
(0.201133 -0.00563262 -0.070423)
(0.2078 -0.00563262 -0.070423)
(0.214466 -0.00563262 -0.070423)
(0.221133 -0.00563262 -0.070423)
(0.2278 -0.00563262 -0.070423)
(0.234466 -0.00563262 -0.070423)
(0.241133 -0.00563262 -0.070423)
(0.2478 -0.00563262 -0.070423)
(0.254466 -0.00563262 -0.070423)
(0.261133 -0.00563262 -0.070423)
(0.2678 -0.00563262 -0.070423)
(0.274466 -0.00563262 -0.070423)
(0.281133 -0.00563262 -0.070423)
(0.2878 -0.00563262 -0.070423)
(0.294466 -0.00563262 -0.070423)
(0.301133 -0.00563262 -0.070423)
(0.3078 -0.00563262 -0.070423)
(0.314466 -0.00563262 -0.070423)
(0.321133 -0.00563262 -0.070423)
(0.3278 -0.00563262 -0.070423)
(0.334466 -0.00563262 -0.070423)
(0.341133 -0.00563262 -0.070423)
(0.3478 -0.00563262 -0.070423)
(0.354466 -0.00563262 -0.070423)