/*--------------------------------*- C++ -*----------------------------------*\
  =========                 |
  \\      /  F ield         | OpenFOAM: The Open Source CFD Toolbox
   \\    /   O peration     | Website:  https://openfoam.org
    \\  /    A nd           | Version:  13
     \\/     M anipulation  |
\*---------------------------------------------------------------------------*/
FoamFile
{
    format      ascii;
    class       featureEdgeMesh;
    location    "constant/geometry";
    object      aircraftModel.eMesh;
}
// * * * * * * * * * * * * * * * * * * * * * * * * * * * * * * * * * * * * * //


// points:

45282
(
(0.687661 -0.00173499 -0.0956311)
(0.00288784 0.002388 -0.0953636)
(0.68785 -0.0291594 -0.0893468)
(-0.0137258 -0.0124925 -0.088829)
(0.704621 0.0137374 -0.0890772)
(0.694469 -0.035503 -0.0824672)
(-0.0269951 -0.0121103 -0.0820251)
(0.00273751 0.0433236 -0.0821204)
(0.309362 -0.176038 -0.0759006)
(0.355988 -0.123104 -0.0757439)
(0.381755 -0.119323 -0.0756363)
(0.731004 0.0133032 -0.0755325)
(0.362297 0.114899 -0.0753429)
(0.362522 0.116028 -0.0753998)
(0.374848 0.120053 -0.0766708)
(0.316049 0.168217 -0.075484)
(0.316076 0.169311 -0.0755833)
(0.282256 0.194759 -0.0752035)
(0.216112 0.293827 -0.0756136)
(0.215108 0.307357 -0.0754862)
(0.168762 0.347238 -0.0757167)
(0.0241286 -0.458503 -0.0693506)
(0.374684 -0.175577 -0.0692116)
(0.428048 -0.115268 -0.0690584)
(0.467102 -0.0748084 -0.0685394)
(0.00328545 -0.0513252 -0.0711507)
(0.695734 -0.0470113 -0.0736568)
(-0.0241082 0.0438782 -0.0691907)
(0.110626 0.459681 -0.0689883)
(-0.0209297 -0.458953 -0.0623947)
(0.139208 -0.460288 -0.0613076)
(0.695741 -0.0526192 -0.0675625)
(-0.0236306 -0.0466723 -0.0652657)
(0.764386 0.00683135 -0.0621986)
(0.721763 0.044172 -0.0629162)
(-0.0213667 0.0541134 -0.0607971)
(0.420951 0.143939 -0.0617188)
(0.367764 0.203945 -0.0618701)
(0.321145 0.257243 -0.0619782)
(-0.0225722 0.461872 -0.0626957)
(0.137385 0.459823 -0.0621307)
(-0.0509008 -0.455698 -0.0569277)
(-0.0237041 -0.0524127 -0.0584132)
(0.455076 0.117246 -0.0554836)
(0.221771 0.377919 -0.0549159)
(-0.0495922 0.46067 -0.0566546)
(-0.0828156 -0.458696 -0.0500929)
(0.154428 -0.459506 -0.052374)
(0.415269 -0.166518 -0.0525808)
(-0.0939345 -0.0119466 -0.0485756)
(0.791553 0.00702147 -0.0494403)
(0.688177 0.0679636 -0.0526201)
(0.387731 0.203537 -0.0478127)
(0.284433 0.319215 -0.0481861)
(0.242136 0.364077 -0.049455)
(-0.11619 -0.458753 -0.0433948)
(0.274905 -0.332934 -0.0455865)
(0.288128 -0.31944 -0.0454249)
(0.301332 -0.304387 -0.0445324)
(0.400889 -0.19052 -0.0448634)
(-0.0107191 -0.0653509 -0.0453045)
(0.80492 0.00679062 -0.0429279)
(-0.0840602 0.0367657 -0.0422528)
(0.302522 0.304307 -0.0431177)
(0.274629 0.337051 -0.0428035)
(0.227773 0.390911 -0.0415507)
(-0.115823 0.461928 -0.0426032)
(-0.142728 -0.458762 -0.0365818)
(0.227855 -0.391973 -0.0393442)
(0.234278 -0.385824 -0.0388706)
(0.256156 -0.359713 -0.0395751)
(0.261955 -0.353292 -0.0397776)
(0.818634 0.00691624 -0.0367107)
(0.687882 0.0746891 -0.0390697)
(0.500901 0.0889849 -0.0353397)
(0.462221 0.131098 -0.036364)
(0.195418 0.431114 -0.0363123)
(0.189133 0.437842 -0.0362136)
(0.166695 0.460782 -0.0395816)
(-0.17837 -0.459467 -0.0298578)
(0.174991 -0.458254 -0.0315981)
(0.202251 -0.426064 -0.0327212)
(-0.143528 -0.41853 -0.0314122)
(0.214669 -0.412224 -0.0324454)
(-0.118478 -0.387956 -0.0300141)
(-0.116044 -0.386188 -0.0307916)
(-0.116309 -0.385632 -0.0294305)
(-0.078526 -0.341251 -0.0300266)
(-0.076085 -0.339489 -0.0308035)
(-0.0763527 -0.338925 -0.0294549)
(0.28868 -0.330111 -0.0300148)
(-0.0360011 -0.292923 -0.0304634)
(-0.0362608 -0.292474 -0.0290873)
(0.109871 -0.124756 -0.0319234)
(0.109524 -0.122736 -0.0305717)
(-0.00371761 -0.0721521 -0.0312587)
(-0.13365 -0.0119989 -0.0290769)
(0.828412 0.011354 -0.0288089)
(0.114577 0.119037 -0.0288325)
(0.107416 0.125292 -0.0296039)
(0.102862 0.130434 -0.0291423)
(0.0791178 0.15535 -0.0299576)
(0.0766407 0.157675 -0.0290778)
(0.0211434 0.225515 -0.0294726)
(-0.0188719 0.272153 -0.0294079)
(-0.0589845 0.318745 -0.0294778)
(-0.0700988 0.330682 -0.0291959)
(-0.0825707 0.34656 -0.0299944)
(-0.0987611 0.365412 -0.0294276)
(-0.110026 0.377475 -0.0291989)
(-0.122558 0.393254 -0.0300117)
(-0.138946 0.411817 -0.0294412)
(-0.150067 0.424073 -0.0291425)
(-0.165784 0.445459 -0.0288741)
(-0.172788 0.452981 -0.028871)
(-0.178443 0.459533 -0.0292722)
(-0.178673 0.460731 -0.0292009)
(-0.165237 -0.445185 -0.0259164)
(-0.158316 -0.438772 -0.0255917)
(-0.151818 -0.432684 -0.0254645)
(0.20902 -0.423939 -0.0234789)
(-0.125432 -0.398554 -0.0261035)
(-0.0854627 -0.351876 -0.0261098)
(0.0812128 -0.158748 -0.026061)
(0.442064 -0.159398 -0.0261457)
(0.0884572 -0.152268 -0.0261826)
(0.0953807 -0.145842 -0.0256505)
(0.101792 -0.139421 -0.0257165)
(0.475159 -0.123821 -0.0230258)
(0.121518 -0.112153 -0.0259846)
(0.128506 -0.105542 -0.0260854)
(0.135401 -0.0991181 -0.0255683)
(0.141829 -0.0926344 -0.0255715)
(0.697424 -0.0724558 -0.0222896)
(-0.0770001 -0.0522523 -0.0252353)
(0.83965 -0.00769753 -0.0225577)
(0.841734 0.00469346 -0.0221626)
(0.836048 0.0111613 -0.0229522)
(0.828694 0.0171557 -0.0233501)
(0.0768747 0.159522 -0.0274004)
(0.440604 0.162506 -0.0217397)
(0.428631 0.176226 -0.021955)
(0.400603 0.208607 -0.0210409)
(-0.0831116 0.347234 -0.0283147)
(0.24614 0.381307 -0.0235855)
(-0.123084 0.393926 -0.0282807)
(-0.170555 0.45611 -0.0226994)
(-0.152545 -0.438733 -0.019569)
(0.320947 -0.322254 -0.0157071)
(0.101076 -0.145359 -0.0197361)
(0.14095 -0.0985569 -0.0196418)
(0.831471 -0.0196352 -0.0154996)
(-0.160091 -0.0122227 -0.0159385)
(0.841043 -0.0113289 -0.018481)
(0.848011 -0.00205439 -0.016543)
(0.847862 0.00189086 -0.0166967)
(0.848913 0.00440198 -0.0140241)
(0.842529 0.0107105 -0.0173092)
(0.467443 0.135979 -0.0152489)
(0.41409 0.196018 -0.0152799)
(0.0428302 0.217942 -0.0159142)
(0.00314316 0.262802 -0.0153193)
(0.323567 0.321011 -0.0137912)
(-0.170058 0.459395 -0.0215054)
(-0.158531 -0.460758 -0.0141881)
(0.275322 -0.352378 -0.0134183)
(0.321006 -0.329734 -0.0100908)
(0.849384 -0.00441782 -0.0129796)
(0.851844 0.00158409 -0.00759524)
(0.848552 0.00907965 -0.00882267)
(0.840454 0.0161419 -0.0102986)
(0.36085 0.255637 -0.00858904)
(-0.0306495 0.288208 -0.0116007)
(0.321251 0.32748 -0.0118396)
(0.220549 0.415571 -0.00813037)
(-0.145544 -0.456016 -0.00402104)
(-0.145582 -0.45362 -0.00524575)
(0.227179 -0.407656 -0.00353215)
(0.317571 -0.335169 -0.00209741)
(0.32181 -0.333925 -0.00128416)
(0.374359 -0.241297 -0.00315389)
(0.474252 -0.127882 -0.00319598)
(0.791106 -0.0388307 -0.00222021)
(0.837739 -0.0188772 -0.00193575)
(-0.176999 0.0234934 -0.0023825)
(0.321131 0.334019 -0.00543735)
(-0.134198 -0.460479 0.00313186)
(0.207735 -0.428099 0.00370191)
(-0.828339 -0.321085 0.0053173)
(-0.829547 -0.316385 0.00261559)
(-0.830251 -0.29719 0.00489466)
(0.36119 -0.254874 0.00345324)
(0.414508 -0.19491 0.00355319)
(0.841849 -0.0148963 0.00340302)
(0.848841 -0.00775133 0.003468)
(-0.177157 0.030458 0.00368085)
(-0.831525 0.318656 0.00503001)
(-0.829056 0.31997 0.00363101)
(-0.131457 0.458046 0.00485537)
(0.19455 -0.441799 0.0102344)
(0.24787 -0.381797 0.0102869)
(-0.831984 -0.295105 0.0103764)
(0.347883 -0.268474 0.0102472)
(0.401263 -0.2085 0.0102318)
(0.454576 -0.148489 0.0102802)
(0.501339 -0.0951454 0.0102424)
(-0.213178 -0.0124671 0.0108386)
(0.836038 -0.0161456 0.0118736)
(0.842366 -0.00992142 0.0113316)
(0.848954 0.00619933 0.00629687)
(0.841843 0.0139862 0.00865155)
(-0.209935 0.0177654 0.0107065)
(-0.208445 0.0206499 0.0119282)
(0.818079 0.0276663 0.0101892)
(-0.830212 0.294055 0.00771052)
(-0.830381 0.324117 0.00975947)
(-0.123489 0.456553 0.0108448)
(-0.113794 -0.460687 0.0159162)
(-0.112152 -0.457651 0.0169667)
(0.221363 -0.408711 0.0169596)
(0.268813 -0.355001 0.0169338)
(0.27476 -0.34829 0.0172751)
(-0.83013 -0.325631 0.0152324)
(0.374882 -0.235429 0.0170901)
(0.428018 -0.175386 0.0171292)
(0.475418 -0.121765 0.0169842)
(0.48141 -0.115419 0.0171287)
(0.83607 -0.0101318 0.0178539)
(0.842788 0.00744116 0.013954)
(0.836214 0.0145095 0.014787)
(-0.223612 0.0166194 0.0179587)
(0.828187 0.0198711 0.0147101)
(-0.185993 0.0337753 0.0130517)
(0.435531 0.16773 0.0140508)
(0.335507 0.281055 0.0139808)
(-0.831798 0.324745 0.0170647)
(-0.122934 0.45952 0.0118931)
(0.175457 0.460954 0.0144858)
(-0.100558 -0.460471 0.0226974)
(0.17384 -0.460299 0.0214996)
(0.188243 -0.442013 0.0238662)
(0.241559 -0.382001 0.0238692)
(-0.830406 -0.326428 0.0222015)
(-0.831954 -0.323654 0.0242684)
(-0.826448 -0.327821 0.0230649)
(0.341513 -0.268638 0.0238367)
(0.394866 -0.208635 0.0238717)
(0.4482 -0.148627 0.0238325)
(0.494852 -0.0952483 0.0237904)
(0.836027 0.00734515 0.0203604)
(-0.237246 0.0119399 0.0226397)
(0.828881 0.0147275 0.0206684)
(-0.232286 0.0181685 0.023521)
(-0.223716 0.0236767 0.0239918)
(-0.180713 0.040859 0.0247041)
(0.415247 0.1871 0.0208331)
(0.361839 0.247083 0.0208237)
(0.0701284 0.256104 0.02441)
(0.268778 0.35236 0.0215836)
(0.261948 0.360397 0.0208383)
(0.215579 0.412438 0.0214883)
(0.208527 0.420529 0.0207812)
(-0.0873527 -0.460713 0.0294045)
(-0.0808246 -0.446797 0.0314235)
(0.201887 -0.421524 0.0303048)
(0.208297 -0.415193 0.02986)
(0.261939 -0.355237 0.0308252)
(-0.830092 -0.321878 0.0306256)
(-0.832713 -0.314745 0.0292139)
(-0.829871 -0.293215 0.0264232)
(0.361698 -0.24203 0.0306566)
(0.388638 -0.2096 0.0308763)
(0.415077 -0.182052 0.0305162)
(0.461564 -0.128579 0.0306354)
(0.212408 -0.106562 0.0312704)
(-0.00607906 -0.0751501 0.0293674)
(0.818671 -0.00574482 0.0312139)
(-0.0896373 0.0621745 0.0316538)
(0.481821 0.107087 0.0274562)
(0.381916 0.220501 0.0274099)
(-0.830522 0.293687 0.0284928)
(-0.831495 0.296597 0.0304591)
(-0.829959 0.32657 0.0262187)
(0.228614 0.393855 0.0275377)
(0.191516 0.43368 0.0294898)
(-0.0833755 0.45056 0.0319564)
(0.175325 0.453932 0.0274831)
(-0.0876411 0.460038 0.0307144)
(0.168544 0.460374 0.0277942)
(0.162733 -0.45675 0.0386356)
(0.255466 -0.35589 0.037625)
(-0.83025 -0.314816 0.0362871)
(-0.00877779 -0.0733511 0.0361949)
(0.448118 0.140207 0.0345603)
(0.394968 0.20027 0.034424)
(-0.8284 0.295859 0.0319091)
(-0.830342 0.304646 0.0363642)
(0.241787 0.373466 0.034797)
(-0.0605265 -0.460487 0.0425211)
(0.156486 -0.456495 0.0456225)
(-0.03183 -0.333612 0.0422248)
(-0.0338255 -0.330749 0.0446463)
(0.361574 -0.229592 0.0436194)
(0.159282 -0.199775 0.0449107)
(0.461295 -0.116373 0.0435536)
(0.245691 -0.0997783 0.0446086)
(0.781764 -0.0226721 0.0441947)
(-0.285222 -0.00203318 0.0443811)
(-0.285696 0.00198437 0.0444392)
(0.748472 0.0477707 0.0412602)
(0.717844 0.0612451 0.043638)
(-0.00443453 0.074963 0.0409812)
(0.46145 0.119206 0.0397835)
(0.454757 0.127532 0.0409284)
(0.407953 0.179216 0.0397806)
(0.4015 0.187799 0.0409502)
(0.353664 0.237316 0.0444229)
(0.355179 0.238602 0.0413263)
(-0.0316943 0.286017 0.0422644)
(-0.0308507 0.334125 0.0404837)
(0.321476 0.331519 0.0453648)
(-0.0474243 -0.460537 0.0495296)
(0.14932 -0.456788 0.0516407)
(0.168775 -0.436618 0.0507687)
(0.221999 -0.376488 0.0505107)
(0.321144 -0.332544 0.0469025)
(-0.0307431 -0.328963 0.0505248)
(0.32378 -0.32671 0.0491817)
(-0.0306344 -0.286178 0.0465887)
(0.320854 -0.290113 0.0504658)
(0.321593 -0.263138 0.0501679)
(0.482068 -0.0827926 0.0506963)
(0.778057 -0.0122096 0.0509059)
(0.161818 0.207355 0.04846)
(-0.0310775 0.290876 0.0512543)
(0.202399 0.40145 0.0479791)
(0.162242 0.447926 0.0476385)
(-0.0432142 0.456907 0.0518144)
(0.149104 0.46134 0.0483267)
(-0.0277491 -0.460437 0.0565671)
(-0.0260348 -0.457156 0.0577437)
(0.181542 -0.410103 0.0568236)
(0.234989 -0.350095 0.0567112)
(-0.0311541 -0.315194 0.0580672)
(0.321236 -0.30361 0.0577304)
(0.334684 -0.236635 0.0565443)
(0.396077 -0.169986 0.058442)
(0.408671 -0.156458 0.0579148)
(0.442617 -0.116615 0.0583962)
(0.455524 -0.103679 0.057285)
(0.687893 -0.0657401 0.0529708)
(-0.194062 -0.0396379 0.0573122)
(0.741584 -0.0360899 0.0580017)
(0.770748 -0.005075 0.0565831)
(-0.299368 0.0110615 0.0568457)
(0.690658 0.0675189 0.0565228)
(0.449346 0.115104 0.0548338)
(0.395793 0.17506 0.0548605)
(0.321115 0.29386 0.0538527)
(-0.0308813 0.297593 0.0578123)
(0.323747 0.299909 0.0557483)
(0.321226 0.317139 0.0576998)
(-0.0315881 0.325512 0.0527255)
(-0.027383 0.32672 0.0538829)
(-0.0427821 0.45964 0.0522048)
(-0.00749567 -0.460398 0.063254)
(0.321652 -0.310607 0.0584156)
(-0.0316113 -0.308183 0.058486)
(-0.226744 -0.0327745 0.0630716)
(-0.313658 -0.00481607 0.0642546)
(0.757336 -0.00528999 0.0633277)
(-0.287072 0.0206814 0.0646299)
(-0.0510687 0.0610625 0.06114)
(0.701834 0.0603623 0.0616068)
(0.388901 0.16719 0.061828)
(0.322053 0.302232 0.0585899)
(-0.0320835 0.312133 0.0586223)
(-0.0273582 0.312988 0.059847)
(-0.0100294 0.458397 0.0642816)
(0.119406 0.46093 0.0629394)
(0.0323488 -0.453773 0.0712374)
(0.722222 -0.0367211 0.0705185)
(-0.260408 -0.0261907 0.0698768)
(-0.311183 -0.0107081 0.0694938)
(-0.317039 0.00560843 0.0685043)
(-0.306584 0.013446 0.0677026)
(-0.307121 0.0141595 0.0711977)
(-0.00906858 0.45972 0.0646786)
(0.101101 0.457987 0.0714258)
(0.099777 0.461328 0.0698391)
(0.0555606 -0.413018 0.0698446)
(0.0950895 -0.366387 0.0700929)
(0.141805 -0.313038 0.0699864)
(-0.287413 -0.0196962 0.0764448)
(-0.323932 -0.00157352 0.079446)
(-0.324695 -2.37341e-05 0.0799759)
(-0.104355 0.0470781 0.0731392)
(0.68765 0.0505972 0.0789514)
(0.135925 0.320614 0.0699897)
(0.0892459 0.373962 0.0700791)
(0.0490631 0.420015 0.0699739)
(0.0417061 0.427193 0.0701656)
(0.0310092 0.459721 0.0719388)
(0.3686 -0.106047 0.0769272)
(0.402005 -0.0792964 0.0769393)
(0.415625 -0.0798085 0.0767141)
(0.401815 -0.0658939 0.0769177)
(0.415687 -0.0665863 0.0768769)
(0.408536 -0.0594601 0.0766707)
(0.422102 -0.0594271 0.0766385)
(-0.305213 -0.0136098 0.0826441)
(-0.320697 -0.00457819 0.0823746)
(-0.323736 0.00272495 0.0822203)
(-0.316681 0.00790154 0.084218)
(-0.303625 0.0147005 0.0820112)
(-0.283897 0.0207774 0.0801077)
(0.408594 0.0599115 0.0767558)
(0.39533 0.0740923 0.0769478)
(0.408749 0.0736429 0.0769037)
(0.394924 0.0876004 0.0769279)
(0.408541 0.0872282 0.0768244)
(0.355266 0.107199 0.0770058)
(0.689057 -0.0378948 0.0860512)
(0.698026 -0.0192351 0.0911046)
(-0.304206 -0.00906374 0.0903849)
(-0.31263 -0.000680146 0.0906308)
(-0.318358 0.00498717 0.0859212)
(-0.312383 0.00320919 0.0905961)
(-0.297881 0.0141699 0.0875111)
(-0.210251 0.0266324 0.0867132)
(-0.0983385 0.0294588 0.090565)
(0.688705 0.0297926 0.0909203)
(0.388315 -0.0496378 -0.0752702)
(0.456921 0.0528183 -0.0767011)
(0.343122 -0.0618899 -0.0689732)
(0.341353 -0.0564771 -0.0687921)
(0.482487 0.0578597 -0.0693246)
(0.195256 -0.259487 -0.0698937)
(0.341652 -0.0795322 -0.0701453)
(0.304762 -0.0652395 -0.0624416)
(0.339927 0.0619091 -0.0680325)
(0.267656 -0.0630666 -0.0555846)
(0.237865 -0.0654925 -0.0506757)
(0.266071 0.0684655 -0.0555166)
(0.194981 -0.0705106 -0.042947)
(0.226231 0.0747819 -0.0481393)
(0.194051 0.078066 -0.0417419)
(0.171006 -0.072076 -0.0376456)
(0.193156 0.0754729 -0.0418168)
(0.159243 0.0815143 -0.0354539)
(0.147966 0.0906031 -0.0218265)
(0.107804 0.137534 -0.0216605)
(0.0678842 0.183835 -0.0218534)
(0.0213843 0.23725 -0.0214907)
(-0.0181473 0.284212 -0.0221944)
(-0.0587207 0.330722 -0.0215129)
(-0.0987142 0.377465 -0.0214452)
(-0.138684 0.424151 -0.0214841)
(0.295655 -0.326757 -0.0187762)
(-0.0191885 -0.286183 -0.0193044)
(0.161329 0.0840876 -0.0149146)
(0.127968 0.124628 -0.0145542)
(0.0879897 0.171251 -0.0146252)
(-0.0060175 0.277525 -0.0157095)
(-0.0204396 0.288329 -0.0176167)
(0.174989 0.0907198 -0.001783)
(0.134753 0.137859 -0.00158068)
(0.0947766 0.184523 -0.00158662)
(0.0548078 0.231173 -0.00164345)
(0.0145032 0.2781 -0.00209046)
(-0.0446598 0.344413 -0.00271485)
(0.0147939 -0.279664 0.000749946)
(0.190528 0.0802223 0.00610831)
(0.18935 0.0829117 0.00565791)
(-0.0131733 -0.340773 0.0165823)
(0.211404 0.0809137 0.0191977)
(-0.0122051 0.34392 0.0180833)
(0.0529238 -0.279846 0.0246464)
(0.221177 -0.0837316 0.0232581)
(0.224729 0.0804522 0.0258361)
(0.26858 -0.342405 0.0307462)
(0.23442 -0.0836442 0.0299192)
(0.238467 0.0803958 0.032451)
(0.0132212 0.339839 0.0312148)
(-0.0390071 -0.30907 0.0376575)
(0.322163 -0.275914 0.0378082)
(0.254245 -0.0768025 0.0365648)
(0.253603 -0.0743562 0.0360659)
(0.247655 0.078442 0.0378339)
(0.0271838 0.337859 0.0377351)
(0.0263941 0.339459 0.0369813)
(0.0406653 -0.343382 0.0436796)
(0.0398252 -0.340691 0.0430533)
(0.316113 -0.275816 0.0445666)
(0.271362 0.0741139 0.0458191)
(0.502371 0.0749842 0.042275)
(0.316189 0.279996 0.0427418)
(0.0441593 0.339569 0.0442861)
(0.285202 0.0735614 0.0520976)
(0.301232 0.284743 0.0514671)
(0.300916 0.288034 0.0518569)
(0.302943 0.289356 0.0515533)
(0.0608399 0.331398 0.0513989)
(-0.0074116 -0.440299 0.0575084)
(0.262095 -0.316976 0.0579698)
(0.284096 -0.297542 0.0567743)
(0.283771 -0.292247 0.0570485)
(0.301114 -0.0702978 0.0563075)
(0.300484 -0.0676028 0.0558915)
(0.28075 0.29102 0.0584266)
(0.281075 0.294548 0.0579633)
(0.283059 0.295867 0.0575773)
(0.0872985 0.318392 0.0579339)
(0.16815 0.42748 0.0541477)
(0.327517 -0.0700888 0.0637319)
(0.326663 -0.0671431 0.0629878)
(0.327611 0.064702 0.064398)
(0.103806 0.339541 0.0649765)
(-0.0386086 -0.0534217 0.0688417)
(0.462432 -0.0559618 0.0706503)
(0.354596 0.0586673 0.0714488)
(0.405357 0.0534958 0.0776459)
(0.00342974 -0.0019932 -0.0950913)
(0.00122795 0.00121349 -0.0950351)
(0.00398203 0.000739658 -0.0956987)
(0.00846799 0.00024647 -0.0958478)
(0.0106373 -0.00270169 -0.0955373)
(0.0151086 0.000171184 -0.0958902)
(0.0176407 -0.0026325 -0.095575)
(0.0219239 0.000209716 -0.0958489)
(0.0244276 -0.0025273 -0.09553)
(0.0286195 0.000227839 -0.0958261)
(0.0310998 -0.0025002 -0.0955138)
(0.035274 0.000225201 -0.0958262)
(0.0377556 -0.00250803 -0.0955159)
(0.0419349 0.000221056 -0.0958288)
(0.0444191 -0.00251459 -0.0955179)
(0.0486016 0.000220389 -0.0958291)
(0.0510859 -0.00251532 -0.095518)
(0.0552686 0.000220814 -0.0958289)
(0.0577528 -0.00251479 -0.0955178)
(0.0619353 0.000220969 -0.0958289)
(0.0644194 -0.00251465 -0.0955178)
(0.068602 0.000220952 -0.0958289)
(0.0710861 -0.00251467 -0.0955178)
(0.0752686 0.000220939 -0.0958289)
(0.0777528 -0.00251468 -0.0955178)
(0.0819353 0.000220939 -0.0958289)
(0.0844194 -0.00251468 -0.0955178)
(0.0886019 0.00022094 -0.0958289)
(0.091086 -0.00251468 -0.0955178)
(0.0952686 0.00022094 -0.0958289)
(0.0977527 -0.00251468 -0.0955178)
(0.101935 0.00022094 -0.0958289)
(0.104419 -0.00251468 -0.0955178)
(0.108602 0.00022094 -0.0958289)
(0.111086 -0.00251468 -0.0955178)
(0.115269 0.00022094 -0.0958289)
(0.117753 -0.00251468 -0.0955178)
(0.121935 0.00022094 -0.0958289)
(0.124419 -0.00251468 -0.0955178)
(0.128602 0.00022094 -0.0958289)
(0.131086 -0.00251468 -0.0955178)
(0.135269 0.00022094 -0.0958289)
(0.137753 -0.00251468 -0.0955178)
(0.141935 0.00022094 -0.0958289)
(0.144419 -0.00251468 -0.0955178)
(0.148602 0.00022094 -0.0958289)
(0.151086 -0.00251468 -0.0955178)
(0.155269 0.00022094 -0.0958289)
(0.157753 -0.00251468 -0.0955178)
(0.161935 0.00022094 -0.0958289)
(0.164419 -0.00251468 -0.0955178)
(0.168602 0.00022094 -0.0958289)
(0.171086 -0.00251468 -0.0955178)
(0.175269 0.00022094 -0.0958289)
(0.177753 -0.00251468 -0.0955178)
(0.181935 0.00022094 -0.0958289)
(0.184419 -0.00251468 -0.0955178)
(0.188602 0.00022094 -0.0958289)
(0.191086 -0.00251468 -0.0955178)
(0.195269 0.00022094 -0.0958289)
(0.197753 -0.00251468 -0.0955178)
(0.201935 0.00022094 -0.0958289)
(0.204419 -0.00251468 -0.0955178)
(0.208602 0.00022094 -0.0958289)
(0.211086 -0.00251468 -0.0955178)
(0.215269 0.00022094 -0.0958289)
(0.217753 -0.00251468 -0.0955178)
(0.221935 0.00022094 -0.0958289)
(0.224419 -0.00251468 -0.0955178)
(0.228602 0.00022094 -0.0958289)
(0.231086 -0.00251468 -0.0955178)
(0.235269 0.00022094 -0.0958289)
(0.237753 -0.00251468 -0.0955178)
(0.241935 0.00022094 -0.0958289)
(0.244419 -0.00251468 -0.0955178)
(0.248602 0.00022094 -0.0958289)
(0.251086 -0.00251468 -0.0955178)
(0.255269 0.00022094 -0.0958289)
(0.257753 -0.00251468 -0.0955178)
(0.261935 0.00022094 -0.0958289)
(0.264419 -0.00251468 -0.0955178)
(0.268602 0.00022094 -0.0958289)
(0.271086 -0.00251468 -0.0955178)
(0.275269 0.00022094 -0.0958289)
(0.277753 -0.00251468 -0.0955178)
(0.281935 0.00022094 -0.0958289)
(0.284419 -0.00251468 -0.0955178)
(0.288602 0.00022094 -0.0958289)
(0.291086 -0.00251468 -0.0955178)
(0.295269 0.00022094 -0.0958289)
(0.297753 -0.00251468 -0.0955178)
(0.301935 0.00022094 -0.0958289)
(0.304419 -0.00251468 -0.0955178)
(0.308602 0.00022094 -0.0958289)
(0.311086 -0.00251468 -0.0955178)
(0.315269 0.00022094 -0.0958289)
(0.317753 -0.00251468 -0.0955178)
(0.321935 0.000220941 -0.0958289)
(0.324419 -0.00251468 -0.0955178)
(0.328602 0.000220941 -0.0958289)
(0.331086 -0.00251468 -0.0955178)
(0.335269 0.000220943 -0.0958289)
(0.337753 -0.00251468 -0.0955178)
(0.341935 0.000220944 -0.0958289)
(0.344419 -0.00251469 -0.0955178)
(0.348602 0.000220946 -0.0958289)
(0.351086 -0.00251469 -0.0955178)
(0.355269 0.000220951 -0.0958289)
(0.357753 -0.0025147 -0.0955178)
(0.361935 0.000220959 -0.0958289)
(0.364419 -0.0025147 -0.0955178)
(0.368602 0.000220966 -0.0958289)
(0.371086 -0.00251471 -0.0955178)
(0.375269 0.000220969 -0.0958289)
(0.377753 -0.00251471 -0.0955178)
(0.381935 0.000220969 -0.0958289)
(0.384419 -0.00251468 -0.0955179)
(0.388602 0.000220968 -0.0958289)
(0.391086 -0.00251464 -0.0955179)
(0.395269 0.000220969 -0.0958289)
(0.397753 -0.00251457 -0.0955178)
(0.401935 0.000220967 -0.0958289)
(0.404419 -0.00251451 -0.0955178)
(0.408602 0.000220961 -0.0958289)
(0.411086 -0.00251446 -0.0955177)
(0.415269 0.000220951 -0.0958289)
(0.417753 -0.00251442 -0.0955176)
(0.421935 0.000220938 -0.0958289)
(0.424419 -0.0025144 -0.0955176)
(0.428602 0.000220922 -0.0958289)
(0.431086 -0.00251439 -0.0955175)
(0.435269 0.000220906 -0.0958288)
(0.437753 -0.0025144 -0.0955175)
(0.441935 0.000220895 -0.0958288)
(0.444419 -0.0025144 -0.0955175)
(0.448602 0.000220894 -0.0958288)
(0.451086 -0.0025144 -0.0955175)
(0.455269 0.0002209 -0.0958288)
(0.457753 -0.00251442 -0.0955175)
(0.461935 0.000220906 -0.0958288)
(0.464419 -0.00251446 -0.0955176)
(0.468602 0.000220909 -0.0958289)
(0.471086 -0.00251453 -0.0955176)
(0.475269 0.000220909 -0.0958289)
(0.477753 -0.0025146 -0.0955177)
(0.481935 0.000220911 -0.0958289)
(0.484419 -0.00251467 -0.0955178)
(0.488602 0.000220918 -0.0958289)
(0.491086 -0.0025147 -0.0955178)
(0.495269 0.000220928 -0.0958289)
(0.497753 -0.00251471 -0.0955178)
(0.501935 0.000220936 -0.0958289)
(0.504419 -0.0025147 -0.0955178)
(0.508602 0.000220941 -0.0958289)
(0.511086 -0.00251469 -0.0955178)
(0.515269 0.000220942 -0.0958289)
(0.517753 -0.00251468 -0.0955178)
(0.521935 0.000220941 -0.0958289)
(0.524419 -0.00251468 -0.0955178)
(0.528602 0.000220941 -0.0958289)
(0.531086 -0.00251468 -0.0955178)
(0.535269 0.00022094 -0.0958289)
(0.537753 -0.00251468 -0.0955178)
(0.541935 0.00022094 -0.0958289)
(0.544419 -0.00251468 -0.0955178)
(0.548602 0.00022094 -0.0958289)
(0.551086 -0.00251468 -0.0955178)
(0.555269 0.00022094 -0.0958289)
(0.557753 -0.00251468 -0.0955178)
(0.561935 0.00022094 -0.0958289)
(0.564419 -0.00251468 -0.0955178)
(0.568602 0.00022094 -0.0958289)
(0.571086 -0.00251468 -0.0955178)
(0.575269 0.00022094 -0.0958289)
(0.577753 -0.00251468 -0.0955178)
(0.581935 0.00022094 -0.0958289)
(0.584419 -0.00251468 -0.0955178)
(0.588602 0.00022094 -0.0958289)
(0.591086 -0.00251468 -0.0955178)
(0.595269 0.00022094 -0.0958289)
(0.597753 -0.00251468 -0.0955178)
(0.601935 0.00022094 -0.0958289)
(0.604419 -0.00251468 -0.0955178)
(0.608602 0.000220941 -0.0958289)
(0.611086 -0.00251468 -0.0955178)
(0.615269 0.000220941 -0.0958289)
(0.617753 -0.00251468 -0.0955178)
(0.621935 0.000220932 -0.0958289)
(0.624419 -0.00251469 -0.0955178)
(0.628602 0.00022091 -0.0958289)
(0.631086 -0.00251471 -0.0955178)
(0.635269 0.000221007 -0.0958289)
(0.637753 -0.00251468 -0.0955179)
(0.641936 0.000221385 -0.0958291)
(0.64442 -0.00251435 -0.095518)
(0.648602 0.000221175 -0.0958287)
(0.651086 -0.00251348 -0.0955173)
(0.655264 0.000218043 -0.0958263)
(0.657746 -0.00251442 -0.0955138)
(0.661918 0.000213938 -0.0958253)
(0.664408 -0.00252746 -0.0955128)
(0.668614 0.000225772 -0.0958445)
(0.671135 -0.00255967 -0.0955389)
(0.675428 0.000268038 -0.0958996)
(0.677929 -0.00255563 -0.0956084)
(0.682071 0.000237397 -0.0959352)
(0.684202 -0.00230684 -0.0956542)
(0.686563 -0.000187555 -0.0958996)
(0.689319 -0.000474369 -0.0951399)
(0.00634554 0.00293325 -0.0953721)
(0.012615 0.00314936 -0.0953276)
(0.0194066 0.0031448 -0.0952528)
(0.0261325 0.00311795 -0.0952196)
(0.0327948 0.00310831 -0.0952187)
(0.0394545 0.00310724 -0.0952225)
(0.0461207 0.00310767 -0.0952232)
(0.052788 0.00310799 -0.095223)
(0.0594547 0.00310808 -0.0952229)
(0.0661214 0.00310807 -0.095223)
(0.072788 0.00310805 -0.095223)
(0.0794547 0.00310805 -0.095223)
(0.0861213 0.00310805 -0.095223)
(0.092788 0.00310805 -0.095223)
(0.0994546 0.00310805 -0.095223)
(0.106121 0.00310805 -0.095223)
(0.112788 0.00310805 -0.095223)
(0.119455 0.00310805 -0.095223)
(0.126121 0.00310805 -0.095223)
(0.132788 0.00310805 -0.095223)
(0.139455 0.00310805 -0.095223)
(0.146121 0.00310805 -0.095223)
(0.152788 0.00310805 -0.095223)
(0.159455 0.00310805 -0.095223)
(0.166121 0.00310805 -0.095223)
(0.172788 0.00310805 -0.095223)
(0.179455 0.00310805 -0.095223)
(0.186121 0.00310805 -0.095223)
(0.192788 0.00310805 -0.095223)
(0.199455 0.00310805 -0.095223)
(0.206121 0.00310805 -0.095223)
(0.212788 0.00310805 -0.095223)
(0.219455 0.00310805 -0.095223)
(0.226121 0.00310805 -0.095223)
(0.232788 0.00310805 -0.095223)
(0.239455 0.00310805 -0.095223)
(0.246121 0.00310805 -0.095223)
(0.252788 0.00310805 -0.095223)
(0.259455 0.00310805 -0.095223)
(0.266121 0.00310805 -0.095223)
(0.272788 0.00310805 -0.095223)
(0.279455 0.00310805 -0.095223)
(0.286121 0.00310805 -0.095223)
(0.292788 0.00310805 -0.095223)
(0.299455 0.00310805 -0.095223)
(0.306121 0.00310806 -0.095223)
(0.312788 0.00310806 -0.095223)
(0.319455 0.00310806 -0.095223)
(0.326121 0.00310807 -0.095223)
(0.332788 0.00310807 -0.095223)
(0.339455 0.00310807 -0.095223)
(0.346121 0.00310807 -0.095223)
(0.352788 0.00310807 -0.095223)
(0.359455 0.00310806 -0.095223)
(0.366121 0.00310804 -0.095223)
(0.372788 0.003108 -0.095223)
(0.379455 0.00310797 -0.0952229)
(0.386121 0.00310793 -0.0952229)
(0.392788 0.00310791 -0.0952229)
(0.399455 0.0031079 -0.0952229)
(0.406121 0.00310789 -0.0952229)
(0.412788 0.00310788 -0.0952229)
(0.419455 0.00310788 -0.0952229)
(0.426121 0.00310787 -0.0952229)
(0.432788 0.00310787 -0.095223)
(0.439455 0.00310788 -0.095223)
(0.446121 0.0031079 -0.095223)
(0.452788 0.00310795 -0.095223)
(0.459455 0.00310799 -0.095223)
(0.466121 0.00310803 -0.095223)
(0.472788 0.00310805 -0.095223)
(0.479455 0.00310806 -0.095223)
(0.486121 0.00310806 -0.095223)
(0.492788 0.00310805 -0.095223)
(0.499455 0.00310805 -0.095223)
(0.506121 0.00310805 -0.095223)
(0.512788 0.00310805 -0.095223)
(0.519455 0.00310805 -0.095223)
(0.526121 0.00310805 -0.095223)
(0.532788 0.00310805 -0.095223)
(0.539455 0.00310805 -0.095223)
(0.546121 0.00310805 -0.095223)
(0.552788 0.00310805 -0.095223)
(0.559455 0.00310805 -0.095223)
(0.566121 0.00310805 -0.095223)
(0.572788 0.00310805 -0.095223)
(0.579455 0.00310805 -0.095223)
(0.586121 0.00310805 -0.095223)
(0.592788 0.00310805 -0.095223)
(0.599455 0.00310805 -0.095223)
(0.606121 0.00310805 -0.095223)
(0.612788 0.00310806 -0.095223)
(0.619455 0.00310805 -0.095223)
(0.626121 0.00310802 -0.0952229)
(0.632788 0.00310811 -0.095223)
(0.639455 0.00310861 -0.0952231)
(0.646122 0.00310835 -0.0952229)
(0.652786 0.00310316 -0.0952213)
(0.659442 0.00309507 -0.0952202)
(0.666113 0.00311458 -0.0952348)
(0.672895 0.00320984 -0.0952813)
(0.679894 0.00330205 -0.0952968)
(0.687108 0.00271222 -0.09501)
(0.0029456 -0.0290853 -0.0889837)
(-0.00195801 -0.025158 -0.0896929)
(0.00284245 -0.0234905 -0.0909696)
(0.00898081 -0.0252657 -0.0909217)
(0.0104736 -0.0302174 -0.0893018)
(0.0156538 -0.0255112 -0.0909695)
(0.0172205 -0.0302073 -0.0893696)
(0.0223119 -0.0253495 -0.090964)
(0.0238616 -0.0300544 -0.0893518)
(0.0289625 -0.0252621 -0.0909502)
(0.030512 -0.0300128 -0.0893404)
(0.0356236 -0.0252591 -0.0909476)
(0.0371758 -0.030021 -0.0893404)
(0.0422906 -0.0252672 -0.0909485)
(0.0438429 -0.0300262 -0.0893412)
(0.0489579 -0.0252685 -0.0909488)
(0.0505099 -0.0300261 -0.0893413)
(0.0556246 -0.025268 -0.0909488)
(0.0571766 -0.0300257 -0.0893412)
(0.0622912 -0.0252679 -0.0909488)
(0.0638432 -0.0300257 -0.0893412)
(0.0689579 -0.0252679 -0.0909488)
(0.0705099 -0.0300257 -0.0893412)
(0.0756246 -0.0252679 -0.0909488)
(0.0771766 -0.0300257 -0.0893412)
(0.0822912 -0.0252679 -0.0909488)
(0.0838432 -0.0300257 -0.0893412)
(0.0889579 -0.0252679 -0.0909488)
(0.0905098 -0.0300257 -0.0893412)
(0.0956245 -0.0252679 -0.0909488)
(0.0971764 -0.0300257 -0.0893412)
(0.102291 -0.0252679 -0.0909488)
(0.103843 -0.0300257 -0.0893412)
(0.108958 -0.0252679 -0.0909488)
(0.11051 -0.0300257 -0.0893412)
(0.115625 -0.0252679 -0.0909488)
(0.117177 -0.0300257 -0.0893412)
(0.122291 -0.0252679 -0.0909488)
(0.123843 -0.0300257 -0.0893412)
(0.128958 -0.0252679 -0.0909488)
(0.13051 -0.0300257 -0.0893412)
(0.135625 -0.0252679 -0.0909488)
(0.137177 -0.0300257 -0.0893412)
(0.142291 -0.0252679 -0.0909488)
(0.143843 -0.0300257 -0.0893412)
(0.148958 -0.0252679 -0.0909488)
(0.15051 -0.0300257 -0.0893412)
(0.155625 -0.0252679 -0.0909488)
(0.157177 -0.0300257 -0.0893412)
(0.162291 -0.0252679 -0.0909488)
(0.163843 -0.0300257 -0.0893412)
(0.168958 -0.0252679 -0.0909488)
(0.17051 -0.0300257 -0.0893412)
(0.175625 -0.0252679 -0.0909488)
(0.177177 -0.0300257 -0.0893412)
(0.182291 -0.0252679 -0.0909488)
(0.183843 -0.0300257 -0.0893412)
(0.188958 -0.0252679 -0.0909488)
(0.19051 -0.0300257 -0.0893412)
(0.195625 -0.0252679 -0.0909488)
(0.197177 -0.0300257 -0.0893412)
(0.202291 -0.0252679 -0.0909488)
(0.203843 -0.0300257 -0.0893412)
(0.208958 -0.0252679 -0.0909488)
(0.21051 -0.0300257 -0.0893412)
(0.215625 -0.0252679 -0.0909488)
(0.217177 -0.0300257 -0.0893412)
(0.222291 -0.0252679 -0.0909488)
(0.223843 -0.0300257 -0.0893412)
(0.228958 -0.0252679 -0.0909488)
(0.23051 -0.0300257 -0.0893412)
(0.235625 -0.0252679 -0.0909488)