/*--------------------------------*- C++ -*----------------------------------*\
  =========                 |
  \\      /  F ield         | OpenFOAM: The Open Source CFD Toolbox
   \\    /   O peration     | Website:  https://openfoam.org
    \\  /    A nd           | Version:  12
     \\/     M anipulation  |
\*---------------------------------------------------------------------------*/
FoamFile
{
    format      ascii;
    class       featureEdgeMesh;
    location    "constant/geometry";
    object      aircraftModel.eMesh;
}
// * * * * * * * * * * * * * * * * * * * * * * * * * * * * * * * * * * * * * //


// points:

4614
(
(480.934 46.8643 33.2403)
(482.109 46.9354 33.1272)
(482.734 46.9595 33.0705)
(480.584 46.97 33.2745)
(482.736 46.959 33.0704)
(493.554 48.9612 33.5232)
(482.086 46.9421 33.1294)
(493.591 48.9439 33.5566)
(465.315 48.9994 35.9818)
(465.239 48.9994 35.9856)
(465.316 48.9994 35.9818)
(490.315 49.9994 35.993)
(490.315 49.9994 35.993)
(490.239 49.9996 35.9947)
(490.539 49.9988 35.9872)
(490.539 49.9988 35.9872)
(490.315 49.9994 35.993)
(490.539 49.9988 35.9872)
(465.966 48.9989 35.9405)
(490.315 49.9994 35.993)
(490.539 49.9988 35.9872)
(457.529 54.0007 37.3667)
(481.782 55.5262 37.3673)
(489.267 55.946 37.2757)
(497.758 56.5155 37.3645)
(505.017 56.9761 37.2666)
(506.149 56.9864 37.1394)
(506.752 56.981 37.0742)
(506.753 56.9802 37.0737)
(508.072 53.8906 38.0702)
(472.419 54.8912 37.3359)
(506.129 56.9963 37.1466)
(500.816 19.6439 42.2191)
(507.368 19.7331 43.3072)
(489.887 20.5847 42.1992)
(507.263 19.944 43.5184)
(468.258 22.024 44.9973)
(468.258 22.0239 44.9973)
(468.474 22.0376 44.9967)
(468.885 22.0682 44.9958)
(470.132 22.1994 44.9872)
(471.703 22.4527 44.9139)
(457.179 23.0396 45.0008)
(457.469 23.0697 45.0032)
(457.88 23.12 45.0067)
(459.141 23.311 44.9919)
(459.873 23.4749 44.9293)
(459.927 23.4391 44.9827)
(468.258 22.0239 44.9972)
(468.474 22.0375 44.9966)
(470.139 22.2073 44.9969)
(445.163 24.0671 45.0011)
(445.45 24.1068 45.0015)
(445.849 24.1657 44.9921)
(446.381 24.2707 44.9793)
(446.419 24.2542 44.9681)
(447.116 24.3466 44.9344)
(459.138 23.3436 45.0268)
(446.427 24.2837 45.0052)
(446.905 24.4372 44.9968)
(457.881 23.1179 45.0044)
(445.236 24.0764 45.0007)
(445.45 24.1049 44.999)
(498.315 24.0003 46.0078)
(498.315 24.0003 46.0078)
(498.239 24.0002 46.0059)
(498.538 24.0004 46.0146)
(498.538 24.0004 46.0146)
(498.965 24.0007 46.0312)
(498.315 24.0003 46.0078)
(498.538 24.0004 46.0146)
(498.965 24.0007 46.0312)
(426.094 27.418 45.8975)
(426.038 27.3963 45.9088)
(426.248 27.4981 45.872)
(426.28 27.486 45.8728)
(426.595 27.6128 45.774)
(426.64 27.603 45.8548)
(413.11 28.3832 45.9458)
(413.055 28.3614 45.9557)
(413.109 28.3926 45.9523)
(413.258 28.4654 45.9263)
(413.295 28.4443 45.9215)
(413.583 28.58 45.8306)
(413.669 28.5343 45.8949)
(426.104 27.4318 45.9095)
(426.274 27.5326 45.902)
(426.465 27.6681 45.8518)
(413.124 28.3933 45.957)
(413.293 28.4905 45.9538)
(413.464 28.6483 45.9219)
(475.269 23.0109 46.9983)
(475.193 23.0084 46.9985)
(475.49 23.019 46.9975)
(475.49 23.019 46.9975)
(475.911 23.0384 46.9956)
(475.911 23.0384 46.9956)
(476.497 23.0748 46.9922)
(477.977 23.2222 46.9708)
(479.636 23.4799 46.8623)
(465.16 24.0783 47.003)
(465.442 24.1253 47.0048)
(466.383 24.2937 46.981)
(467.05 24.407 46.9587)
(475.269 23.0109 46.9983)
(477.986 23.234 46.9794)
(498.315 24.0003 46.0078)
(498.538 24.0004 46.0146)
(498.965 24.0007 46.0312)
(466.388 24.3319 47.0117)
(426.734 27.8059 45.9411)
(413.124 28.3839 45.9505)
(320.38 37.9428 46.4484)
(320.313 37.9581 46.4529)
(319.125 39.734 46.9554)
(319.062 39.755 46.9636)
(319.655 39.5556 46.8772)
(319.123 39.7316 46.9555)
(320.094 39.4224 46.8226)
(475.269 23.0109 46.9983)
(465.442 24.1229 47.0027)
(429.165 28.0838 47.9278)
(429.238 28.0939 47.9178)
(429.449 28.1245 47.8862)
(429.843 28.1842 47.8154)
(431.037 28.396 47.4892)
(448.247 27.983 47.4377)
(449.294 28.0157 47.7542)
(449.815 28.0156 47.8728)
(449.878 28.0152 47.8855)
(429.856 28.1874 47.8214)
(433.966 28.9994 47.57)
(434.063 29.0685 47.5818)
(434.769 29.1719 47.7019)
(435.659 29.3534 47.7504)
(448.388 28.0385 47.5303)
(448.859 28.0253 47.6489)
(449.815 28.0153 47.8724)
(433.942 29.0629 47.6075)
(434.839 29.2463 47.7278)
(370.289 36.6057 47.9797)
(370.266 36.6303 47.9728)
(369.95 36.7986 47.9028)
(370.797 38.6647 47.7288)
(319.301 39.6624 46.9287)
(319.626 39.5227 46.8775)
(371.904 38.9461 47.8207)
(374.757 39.1169 47.838)
(507.625 24.0645 47.9986)
(496.535 25.0172 48.8117)
(497.52 25.0187 48.9285)
(497.736 25.0166 48.9488)
(497.736 25.0166 48.9488)
(497.81 25.0158 48.9553)
(507.595 24.1077 48.0095)
(482.503 26.0223 48.8155)
(483.514 26.0213 48.9292)
(483.733 26.0184 48.949)
(483.733 26.0184 48.949)
(483.808 26.0173 48.9554)
(495.257 25.0598 48.641)
(495.914 25.0323 48.7299)
(497.519 25.0181 48.928)
(481.178 26.0795 48.6611)
(483.512 26.0206 48.9286)
(429.237 28.0937 47.9173)
(431.254 28.447 47.5795)
(449.303 28.0192 47.7602)
(433.613 28.9413 47.5848)
(370.15 36.6872 47.961)
(460.834 41.9959 49.0542)
(461.68 41.9981 49.0269)
(461.68 41.9981 49.0269)
(462.425 41.9992 49.0122)
(462.425 41.9992 49.0122)
(463.031 41.9997 49.005)
(463.031 41.9997 49.005)
(463.461 41.9999 49.0019)
(463.461 41.9999 49.0019)
(463.685 42 49.0008)
(463.685 42 49.0008)
(463.762 42 49.0005)
(462.425 41.9992 49.0122)
(463.031 41.9997 49.005)
(463.461 41.9999 49.0019)
(463.685 42 49.0008)
(507.567 24.0641 48.0036)
(496.554 25.0255 48.8208)
(497.736 25.0165 48.9486)
(482.526 26.0325 48.8252)
(462.962 32.1645 49.7317)
(463.921 32.2078 49.7506)
(464.859 32.235 49.7042)
(461.239 32.1705 49.6171)
(490.315 37.0002 50.0028)
(490.315 37.0002 50.0028)
(490.239 37.0001 50.0019)
(490.539 37.0005 50.0057)
(490.539 37.0005 50.0057)
(490.97 37.0013 50.0133)
(442.099 38.2505 49.7802)
(442.746 38.1977 49.8197)
(490.315 37.0002 50.0028)
(490.539 37.0005 50.0057)
(490.97 37.0013 50.0133)
(461.68 41.9981 49.0269)
(462.425 41.9992 49.0122)
(463.031 41.9997 49.005)
(463.461 41.9999 49.0019)
(463.685 42 49.0008)
(265.685 43.5372 50.0388)
(506.998 30.0352 50.5838)
(489.82 31.3525 50.7066)
(506.834 30.0868 50.543)
(506.973 30.0488 50.5686)
(463 32.176 49.7389)
(488.215 31.2236 50.6273)
(490.315 37.0002 50.0028)
(490.539 37.0005 50.0057)
(490.97 37.0013 50.0133)
(491.577 37.0033 50.0289)
(506.944 30.049 50.5792)
(251.851 44.4814 64.151)
(240.902 45.3142 74.2455)
(225.721 46.3585 90.0303)
(224.791 46.3751 90.9424)
(223.232 37.1829 97.8209)
(223.22 37.1911 97.844)
(221.151 36.484 99.1618)
(211.587 47.2987 104.089)
(210.701 47.3749 105.04)
(209.79 47.4091 105.985)
(208.87 47.4212 106.979)
(212.248 35.2729 108.04)
(212.224 35.2723 108.082)
(212.195 35.258 108.063)
(211.19 35.1534 109.072)
(211.165 35.1316 109.052)
(210.273 35.1232 110.01)
(210.256 35.0997 109.985)
(199.498 43.0608 110.696)
(200.655 48.1127 114.753)
(199.636 48.0728 115.712)
(193.773 42.7905 116.277)
(195.613 48.3166 120.097)
(199.059 34.1574 121.035)
(199.041 34.141 121.059)
(199.023 34.1451 121.053)
(199.062 34.1699 120.974)
(194.762 48.4105 121.041)
(198.093 34.2107 122.05)
(187.581 49.021 127.86)
(186.599 49.0847 128.817)
(181.202 31.9621 137.833)
(174.575 49.9401 140.872)
(169.093 45.8744 141.927)
(173.58 49.9652 141.871)
(180.408 39.2422 142.218)
(172.599 49.9795 142.848)
(171.646 49.988 143.816)
(170.704 49.9862 144.801)
(169.758 49.979 145.818)
(168.755 49.9784 146.894)
(173.867 33.1604 147.829)
(173.856 33.1653 147.857)
(173.821 33.1562 147.858)
(167.744 49.9995 147.935)
(172.954 33.2502 148.909)
(172.954 33.2537 148.94)
(172.971 33.257 148.916)
(166.727 50.0606 148.97)
(162.555 50.8786 152.788)
(161.588 50.907 153.849)
(166.032 35.0249 155.967)
(165.209 35.0474 156.833)
(160.23 29.7708 158.649)
(161.952 32.047 159.94)
(161.941 32.0414 159.967)
(161.918 32.0363 159.96)
(161.937 32.0333 159.877)
(161.024 32.0769 160.929)
(161.05 32.0762 160.83)
(160.036 32.1827 161.96)
(159.895 32.2207 161.982)
(152.261 51.3928 164.687)
(149.57 51.9817 165.416)
(148.556 52.1529 166.966)
(142.688 52.2055 172.912)
(140.512 27.782 175.986)
(133.115 47.2621 176.66)
(140.929 28.0157 176.751)
(138.057 52.7654 177.095)
(138.039 52.7743 177.061)
(137.876 52.6374 177.781)
(139.225 52.4177 177.727)
(137.039 52.7969 177.997)
(127.902 26.7837 188.686)
(128.199 26.9339 189.307)
(125.044 53.7792 190.106)
(125.025 53.7892 190.074)
(124.027 53.7973 191.023)
(123.888 53.6569 191.784)
(123.039 53.8012 192.006)
(121.457 26.5869 194.526)
(120.605 53.9735 194.894)
(119.651 53.9915 195.935)
(121.973 28.7811 198.997)
(116.16 25.6939 200.553)
(112.113 54.9144 203.119)
(112.096 54.926 203.088)
(111.477 25.6316 204.491)
(111.096 54.9355 204.025)
(110.501 25.628 205.507)
(110.071 54.8792 204.991)
(109.503 25.6137 206.536)
(117.121 28.6215 205.11)
(109.905 54.7029 205.75)
(109.019 54.8297 206.021)
(108.458 25.5523 207.623)
(108.036 54.8158 207.012)
(106.349 24.7886 210.321)
(105.617 55.0081 209.884)
(104.697 55.0491 210.895)
(98.3665 49.6064 211.488)
(108.235 31.1165 214.957)
(102.077 55.312 214.828)
(99.0991 55.9277 216.155)
(99.0824 55.9397 216.121)
(107.204 38.078 217.634)
(98.0841 55.9729 217.072)
(97.0886 55.9803 218.068)
(96.0959 55.9772 219.06)
(95.1109 55.9607 220.036)
(94.3957 23.7784 222.315)
(94.1007 55.8941 220.987)
(93.6433 23.6703 223.201)
(91.6818 56.0379 223.905)
(89.2971 23.7234 226.631)
(91.0585 23.787 226.688)
(91.0348 23.7682 226.729)
(91.0156 23.7706 226.689)
(91.0564 23.8006 226.543)
(90.922 23.7959 226.66)
(88.1324 56.3277 228.872)
(86.0264 56.7163 229.14)
(86.0077 56.7219 229.104)
(87.2053 56.4091 229.769)
(85.0084 56.8798 230.104)
(79.4313 49.3187 230.366)
(84.0576 56.96 231.09)
(83.4238 22.7746 233.251)
(83.0796 56.9815 232.075)
(82.09 56.9863 233.065)
(84.9274 24.7811 235.353)
(89.2031 30.12 234.083)
(76.1161 50.905 233.935)
(81.1044 56.9848 234.052)
(80.5347 23.152 235.262)
(75.5356 50.9511 234.487)
(80.135 56.9699 235.018)
(80.1638 22.8331 235.933)
(80.2071 22.8522 235.949)
(79.3913 23.1069 236.302)
(87.9125 39.3257 237.157)
(79.1386 22.7892 236.919)
(80.1486 22.8517 235.969)
(80.8873 22.8127 236.674)
(80.8581 22.7948 236.717)
(80.833 22.8021 236.677)
(88.7757 41.8991 236.245)
(79.8925 22.771 237.741)
(79.8677 22.7535 237.777)
(79.8381 22.7602 237.742)
(77.2409 22.71 238.663)
(78.7163 57.1792 237.973)
(79.0172 22.713 238.757)
(78.9992 22.6971 238.789)
(78.9726 22.701 238.756)
(85.0968 41.6975 239.917)
(83.6024 39.3002 241.431)
(75.1575 57.327 241.85)
(73.0947 57.7176 242.129)
(73.078 57.7269 242.094)
(72.4178 21.7732 244.244)
(72.07 57.7482 243.044)
(71.8971 57.6129 243.813)
(71.0556 57.7462 244.043)
(67.3842 55.1359 244.988)
(70.8661 57.6179 244.815)
(69.9854 57.7231 245.051)
(69.6399 22.0948 246.347)
(72.8547 23.7593 247.298)
(69.8349 57.6633 245.837)
(69.0082 57.8685 246.097)
(69.2272 21.8156 246.995)
(69.2124 21.8298 246.985)
(69.2688 21.8362 247.008)
(68.5058 22.0826 247.382)
(75.1902 26.2188 247.086)
(68.0603 57.9541 247.084)
(68.161 21.8129 247.987)
(68.1991 21.8335 248.009)
(69.2125 21.8353 247.03)
(69.8838 21.8413 247.658)
(69.8546 21.8231 247.702)
(69.8312 21.8295 247.665)
(69.7041 21.8677 247.639)
(67.0854 57.9867 248.066)
(67.1449 21.797 248.92)
(68.8636 21.826 248.722)
(68.8375 21.8073 248.76)
(68.8091 21.8144 248.726)
(68.6725 21.8525 248.706)
(60.6613 50.545 249.062)
(66.1015 58.0143 249.049)
(67.8819 21.7917 249.743)
(67.8578 21.7732 249.778)
(67.828 21.7796 249.745)
(65.2423 21.7273 250.667)
(67.0017 21.7329 250.752)
(66.9846 21.7158 250.784)
(66.9584 21.72 250.752)
(66.0156 58.1431 251.001)
(66.0681 58.1406 250.962)
(66.0465 58.1643 250.977)
(71.9947 29.2289 252.234)
(66.0518 58.152 250.999)
(70.8879 29.1857 253.323)
(71.2864 29.2532 252.942)
(70.2818 29.22 253.973)
(70.5621 29.2803 253.693)
(60.7921 20.7939 255.832)
(62.1373 58.3281 254.829)
(60.1157 58.6973 255.136)
(60.0993 58.7063 255.102)
(59.5199 21.134 256.426)
(61.2465 58.3898 255.726)
(59.0943 58.7285 256.052)
(59.1837 20.8261 257.026)
(59.2181 20.849 257.044)
(60.8148 20.9518 256.307)
(53.3822 50.0792 256.472)
(53.6772 51.698 256.553)
(58.9303 58.598 256.819)
(58.0876 58.7397 257.049)
(58.1577 20.823 258.038)
(58.1918 20.846 258.059)
(59.8287 20.8474 257.694)
(59.8069 20.8276 257.733)
(59.7786 20.8358 257.7)
(59.6369 20.8806 257.685)
(57.9229 58.6135 257.818)
(57.0791 58.7491 258.048)
(57.1525 20.8188 259.035)
(57.1862 20.8419 259.057)
(58.8269 20.8471 258.729)
(58.8051 20.8273 258.765)
(58.7756 20.8353 258.733)
(58.6322 20.8798 258.72)
(56.9144 58.6259 258.815)
(56.0734 58.7563 259.045)
(56.1306 20.8267 260.005)
(56.1651 20.8495 260.027)
(57.8286 20.8474 259.728)
(57.8063 20.8275 259.763)
(57.7762 20.8354 259.732)
(57.6322 20.8797 259.718)
(55.9017 58.6385 259.811)
(55.0569 58.7549 260.041)
(55.0998 20.8327 260.964)
(55.136 20.8544 260.988)
(56.8306 20.8473 260.718)
(56.8074 20.8275 260.754)
(56.7767 20.8355 260.722)
(56.6319 20.8799 260.705)
(51.4113 56.1796 260.888)
(53.9884 58.7503 261.046)
(54.1329 20.7928 261.922)
(55.8394 20.8414 261.711)
(55.816 20.8214 261.747)
(55.7849 20.8291 261.715)
(55.6424 20.8697 261.697)
(60.1408 24.9278 262.001)
(53.8591 58.7532 261.825)
(53.0891 58.894 262.072)
(53.051 58.9171 262.081)
(54.8757 20.8135 262.723)
(54.8522 20.7939 262.76)
(54.8215 20.7998 262.727)
(52.2538 20.7188 263.69)
(54.6831 20.8323 262.715)
(61.7568 37.0318 264.119)
(52.1633 59.0033 263.067)
(53.0589 58.9138 262.137)
(53.7941 59.078 262.97)
(53.8599 59.0761 262.938)
(52.1204 59.0197 263.075)
(53.8383 59.1028 262.949)
(53.9992 20.7574 263.744)
(53.982 20.739 263.778)
(53.9557 20.7425 263.745)
(52.1293 59.0145 263.132)
(52.8256 59.1102 263.907)
(53.8432 59.0923 262.97)
(51.1655 59.0482 264.06)
(52.8683 59.1376 263.933)
(50.4525 20.42 265.752)
(51.1773 59.0441 264.12)
(51.8976 59.12 264.944)
(52.8828 59.1245 263.951)
(51.9373 59.144 264.971)
(49.8486 19.8863 266.837)
(51.0576 59.1637 265.969)
(51.0623 59.1659 266.028)
(51.085 59.186 265.995)
(49.729 19.8709 267.008)
(48.9611 20.735 267.348)
(48.4786 20.4612 268.17)
(49.7596 19.8602 267.11)
(49.8813 20.0739 267.328)
(48.4965 20.4704 268.226)
(49.0519 20.0454 268.722)
(49.0476 20.0767 268.688)
(49.0957 20.1359 268.556)
(48.4564 58.6023 268.212)
(48.4639 58.6475 268.472)
(48.7144 58.6518 268.49)
(48.3748 58.579 268.461)
(48.4495 20.6008 269.799)
(48.4654 20.7038 269.811)
(49.0845 21.9075 270.667)
(48.5484 20.9156 269.915)
(50.8473 24.1301 271.076)
(54.1867 29.6824 270.154)
(55.0938 36.9723 270.689)
(54.724 37.0631 271.068)
(52.6259 37.2267 273.229)
(50.4803 27.963 273.579)
(48.7112 24.3753 272.708)
(50.2498 28.0166 273.848)
(49.1897 30.0415 275.645)
(48.8235 29.8256 275.664)
(48.9959 29.8672 275.757)
(48.9287 29.9592 275.752)
(48.9517 31.9101 275.818)
(49.1349 31.9802 275.882)
(49.0499 32.0501 275.868)
(48.9614 33.9242 275.836)
(49.1441 33.9923 275.891)
(49.0562 34.0626 275.88)
(48.9476 36.0018 275.9)
(49.047 36.1415 275.944)
(48.8947 29.8368 275.769)
(49.0261 31.939 275.906)
(49.0349 33.9505 275.917)
(49.0263 36.012 275.968)
(351.382 43.4434 35.7815)
(352.223 43.3204 35.789)
(353.118 43.1966 35.7513)
(354.921 43.0116 35.5533)
(355.772 42.9057 35.3844)
(352.225 43.3101 35.7851)
(353.116 43.1927 35.7519)
(355.008 43.0498 35.5514)
(441.36 48.0374 35.4243)
(441.736 48.0395 35.5161)
(441.912 48.0428 35.6035)
(441.964 48.0346 35.6184)
(441.779 48.0566 35.524)
(441.91 48.0367 35.5906)
(467.293 49.001 35.799)
(468.105 49.0043 35.6645)
(468.116 49.0084 35.6634)
(468.929 49.0025 35.4817)
(468.996 49.0233 35.4616)
(469.7 48.9865 35.2699)
(451.176 49.9623 35.5823)
(451.399 49.9344 35.4927)
(466.563 48.9988 35.8878)
(467.289 48.9999 35.8013)
(468.104 49.0052 35.6697)
(468.995 49.0258 35.4755)
(470.08 49.1041 35.1602)
(492.312 49.9884 35.8985)
(493.147 49.9786 35.8219)
(493.148 49.979 35.8229)
(494.037 49.9611 35.7067)
(494.05 49.9663 35.7073)
(494.92 49.9248 35.5492)
(451.449 49.959 35.4968)
(473.301 50.9822 35.7316)
(473.227 50.9832 35.7511)
(473.516 50.9789 35.6722)
(473.871 50.9528 35.56)
(492.31 49.9879 35.8988)
(494.994 49.9543 35.5525)
(496.139 49.9856 35.3023)
(473.93 50.9762 35.5628)
(495.283 51.9574 35.7607)
(495.211 51.9611 35.7764)
(495.492 51.9454 35.7134)
(495.832 51.8995 35.6296)
(495.895 51.9268 35.6278)
(351.364 43.4957 35.7931)
(441.782 48.0718 35.5548)
(441.92 48.0432 35.5986)
(468.092 49.001 35.6708)
(468.927 49.0049 35.4957)
(491.572 49.9941 35.9458)
(493.143 49.9772 35.8227)
(494.025 49.9585 35.7115)
(473.296 50.9806 35.7314)
(495.278 51.9555 35.7609)
(495.472 51.939 35.7172)
(505.277 54.0016 37.9958)
(505.208 54.0014 37.9965)
(505.475 54.0024 37.9937)
(505.845 54.0036 37.9899)
(506.34 54.0023 37.9796)
(506.905 53.9907 37.9643)
(506.901 54.0072 37.9685)
(507.458 53.9806 37.9203)
(481.948 55.2624 37.2817)
(506.342 54.0041 37.9858)
(506.907 54.0122 37.9859)
(507.464 54.0414 37.9806)
(497.918 56.2346 37.2754)
(505.277 54.0017 37.9957)
(505.475 54.0021 37.9934)
(505.845 54.0023 37.9885)
(500.065 19.7481 42.0668)
(446.483 24.3912 41.9225)
(432.312 25.8027 42.0153)
(432.645 25.8313 42.0024)
(432.823 25.8484 42.0003)
(432.884 25.8553 41.999)
(420.816 26.7449 42.0766)
(421.012 26.7652 42.0457)
(432.356 25.8049 41.9795)
(432.661 25.8306 41.9948)
(420.838 26.749 42.0326)
(458.577 23.3706 42.1859)
(432.826 25.8489 41.9977)
(427.058 28.1661 45.2589)
(429.749 28.7617 46.016)
(413.589 29.3344 45.1986)
(413.602 29.3004 45.1662)
(413.752 29.4256 45.1598)
(413.759 29.4137 45.1582)
(413.815 29.45 45.1471)
(413.579 29.3237 45.1429)
(413.758 29.4118 45.147)
(468.258 22.0239 44.9973)
(500.295 24.0018 46.1205)
(501.112 24.0025 46.212)
(501.111 24.0027 46.2127)
(501.967 24.0054 46.3484)
(502.882 23.9937 46.5441)
(502.828 24.0099 46.5315)
(503.91 23.9508 46.8338)
(500.296 24.0015 46.1208)
(501.976 24.003 46.3525)
(502.82 24.013 46.5404)
(503.608 24.0414 46.7668)
(413.566 29.3577 45.1752)
(413.751 29.4238 45.1486)
(430.023 28.8328 46.231)
(508.135 22.6256 45.9344)
(501.115 24.0015 46.2129)
(501.987 23.9996 46.3531)
(502.874 23.9968 46.553)
(454.691 29.1469 47.265)
(455.42 29.3992 47.2357)
(456.221 29.6143 47.2115)
(457.084 29.763 47.2034)
(458.799 29.9478 47.3395)
(458.797 29.95 47.34)
(459.626 30.0007 47.4866)
(459.593 30.006 47.4745)
(460.52 30.0363 47.7228)
(460.284 30.039 47.6285)
(456.239 29.6104 47.2)
(457.086 29.7604 47.2018)
(457.951 29.8706 47.2479)
(458.807 29.9502 47.3449)
(459.617 30.0127 47.4889)
(369.766 37.7472 47.4251)
(455.397 29.439 47.2653)
(458.809 29.948 47.3443)
(459.65 30.0074 47.501)
(460.419 30.0763 47.7079)
(369.761 37.708 47.4433)
(442.719 37.9966 49.7978)
(464.322 39.0171 49.1773)
(464.247 39.0144 49.1606)
(464.544 39.0245 49.2273)
(464.96 39.0445 49.325)
(466.491 38.9846 49.6992)
(464.324 39.0162 49.1777)
(465.52 39.0817 49.4678)
(466.175 39.1778 49.6267)
(456.172 41.864 49.5674)
(457.055 41.9351 49.4174)
(458.011 41.9667 49.2761)
(458.968 41.9846 49.1741)
(455.784 42.0072 49.6418)
(458.972 41.9834 49.1725)
(493.172 37.0171 50.1049)
(495.038 37.069 50.2787)
(497.29 37.0936 50.6047)
(495.983 37.1307 50.4117)
(442.762 38.4141 49.8306)
(464.324 39.0166 49.1774)
(464.548 39.0223 49.2282)
(464.98 39.0323 49.3299)
(457.987 41.9758 49.2812)
(494.094 37.0328 50.1778)
(495.063 37.0588 50.2816)
(193.736 42.9074 116.37)
(171.15 45.968 139.881)
(171.129 45.7742 139.806)
(171.062 46.1257 140.054)
(171.303 46.5254 140.037)
(181.046 38.1191 141.597)
(140.719 27.8995 176.775)
(140.482 27.8662 177.398)
(136.42 30.1714 184.833)
(136.066 29.7901 184.93)
(135.155 29.8658 186.015)
(135.596 29.8554 185.528)
(135.904 30.0792 185.345)
(135.165 30.1984 186.248)
(135.296 30.0041 185.957)
(127.87 26.9312 189.074)
(127.846 26.9138 189.743)
(123.505 50.1006 188.417)
(123.516 50.1176 188.367)
(123.509 50.1255 188.401)
(123.509 50.1006 188.414)
(122.85 28.5771 197.846)
(123.165 29.0876 197.925)
(122.202 28.9319 198.869)
(122.553 28.8603 198.429)
(116.542 25.9438 200.19)
(115.939 25.9342 201.029)
(119.983 28.9457 201.285)
(115.894 25.9323 201.691)
(121.324 33.1082 202.169)
(106.679 47.9719 203.343)
(106.686 47.9876 203.324)
(106.685 47.9728 203.339)
(99.6372 49.7346 210.256)
(103.618 51.371 208.376)
(103.619 51.3979 208.359)
(103.621 51.3714 208.374)
(98.351 49.6925 211.554)
(103.964 24.8355 212.895)
(107.521 38.2092 217.291)
(84.7449 52.5456 227.097)
(82.7681 52.1984 229.246)
(82.7706 52.2095 229.223)
(82.7732 52.1995 229.243)
(84.9052 24.7626 235.337)
(84.1671 24.7661 236.154)
(87.8894 39.105 237.174)
(83.4793 39.0692 241.529)
(78.8851 26.1126 243.334)
(67.566 55.1299 244.844)
(67.5206 55.5044 245.132)
(65.6077 53.3853 246.124)
(72.8499 23.7412 247.263)
(71.8446 23.7158 248.319)
(60.6921 50.6026 249.079)
(72.05 29.3788 252.223)
(61.7825 53.1967 250.228)
(61.788 53.208 250.202)
(71.0594 29.3236 253.191)
(61.7878 53.1975 250.226)
(55.9027 51.6933 254.258)
(64.8289 25.098 257.245)
(53.6238 51.7762 256.632)
(60.7908 22.7584 259.252)
(51.5857 56.1706 260.743)
(51.5493 56.5306 261.052)
(57.5314 22.7235 262.628)
(57.274 22.7853 263.049)
(57.2717 22.7375 262.975)
(53.8575 23.9648 268.211)
(55.7728 28.184 268.184)
(57.1994 32.734 268.409)
(52.4586 37.0718 273.345)
(50.2348 27.9155 273.788)
(480.235 46.7472 33.316)
(480.348 46.9107 33.341)
(493.452 48.7796 33.5533)
(356.316 42.768 35.1954)
(356.48 42.6533 35.2045)
(350.113 43.6851 35.6033)
(356.951 43.2694 35.2291)
(480.026 46.4591 33.3818)
(470.818 48.6323 34.4188)
(470.33 49.2361 34.5175)
(470.44 49.055 34.8518)
(470.482 48.9128 34.9234)
(496.808 49.1585 34.4786)
(451.944 49.8413 35.154)
(452.097 49.7246 35.1635)
(471.123 49.459 34.8372)
(496.12 50.0079 34.64)
(496.436 49.8414 34.9871)
(496.582 49.673 35.0375)
(452.507 50.2546 35.2788)
(474.799 50.8734 35.1657)
(474.93 50.7772 35.1622)
(497.142 50.3399 35.0941)
(475.429 51.2868 35.2744)
(496.683 51.7462 35.3028)
(496.814 51.6317 35.3656)
(497.373 52.2199 35.3501)
(349.94 43.5662 35.6224)
(350.532 43.7343 35.7646)
(350.413 44.1757 35.8488)
(356.133 43.0376 35.3639)
(441.475 48.0501 35.3136)
(441.293 48.3715 35.4037)
(441.595 48.1315 35.4684)
(465.315 48.9994 35.9818)
(465.539 48.9991 35.9694)
(465.538 48.9991 35.9695)
(465.966 48.9989 35.9405)
(465.965 48.9988 35.9406)
(466.564 48.9992 35.8873)
(465.539 48.9991 35.9694)
(490.968 49.9973 35.9731)
(490.968 49.9973 35.9731)
(491.572 49.9941 35.9459)
(491.572 49.9941 35.946)
(492.311 49.9882 35.8988)
(490.968 49.9973 35.9731)
(491.572 49.994 35.9459)
(350.568 43.7187 35.8022)
(441.482 48.1349 35.4792)
(465.316 48.9994 35.9818)
(465.539 48.9992 35.9694)
(466.563 48.999 35.8874)
(490.968 49.9973 35.9731)
(457.232 53.587 37.098)
(456.572 53.8471 37.3243)
(475.078 54.6446 37.0538)
(508.107 53.7173 37.2165)
(474.962 54.6943 37.0681)
(482.539 55.0496 37.0931)
(493.085 55.634 36.9838)
(472.85 55.0765 37.416)
(483.309 55.3899 37.2519)
(490.082 55.9368 37.22)
(492.948 55.6935 36.9861)
(498.523 56.0366 37.0948)
(488.915 56.1047 37.3927)
(490.009 55.9649 37.2375)
(499.3 56.3863 37.2482)
(504.719 57.1284 37.3841)
(457.003 53.9503 37.3932)
(457.425 53.919 37.336)
(457.318 54.1601 37.5142)
(507.972 53.8081 37.7992)
(472.59 55.1258 37.4949)
(507.91 54.0691 37.8658)
(508.239 54.6832 38.1714)
(482.244 55.4541 37.3758)
(482.078 55.968 37.6692)
(488.446 55.8917 37.328)
(488.625 56.1254 37.477)
(498.221 56.4365 37.3697)
(498.06 56.9617 37.659)
(504.336 56.8963 37.3352)
(504.517 57.1205 37.4932)
(457.766 54.4325 37.7206)
(508.01 54.1517 38.1368)
(508.675 54.1865 38.7326)
(482.138 55.4738 37.4406)
(498.109 56.4479 37.4308)
(500.805 19.6615 42.0188)
(489.872 20.6028 42.0003)
(479.625 21.5062 42.0112)
(489.17 20.6719 42.0423)
(468.608 22.4718 42.0061)
(477.253 21.6868 42.0568)
(458.436 23.3857 41.9917)
(466.271 22.654 42.044)
(447.131 24.2793 42.0398)
(455.28 23.6499 42.0379)
(443.249 24.6927 42.0379)
(431.902 25.7681 42.0294)
(420.666 26.7307 42.0037)
(420.637 26.7121 42.1245)
(408.305 27.6586 42.0538)
(408.425 27.6581 42.1912)
(408.371 27.6563 42.1099)
(501.126 19.729 42.5461)
(490.176 20.6705 42.5289)
(499.949 19.7281 42.1572)
(506.994 19.9085 42.9149)
(507.38 20.0762 43.3777)
(479.715 21.4896 42.2018)
(468.702 22.4539 42.1966)
(431.799 25.795 42.0599)
(472.091 22.6278 44.4664)
(460.641 23.5218 44.5883)
(447.726 24.4377 44.4936)
(468.184 22.0197 44.9975)
(468.474 22.0376 44.9967)
(471.992 22.6717 44.9257)
(447.068 24.4038 44.8907)
(459.669 23.5042 45.0207)
(460.183 23.8764 45.045)
(471.609 23.0536 45.0199)
(447.451 24.8351 45.0427)
(426.483 27.6544 44.8955)
(426.882 27.7124 45.244)
(427.119 27.5786 45.4537)
(414.032 28.5086 45.4668)
(426.963 28.1425 45.3858)
(427.794 28.4447 45.4894)
(427.805 28.4156 45.4591)
(428.607 28.6126 45.6553)
(428.566 28.6051 45.6335)
(429.503 28.7191 45.9594)
(429.251 28.7177 45.8318)
(413.362 29.0924 45.2806)
(413.294 29.0851 45.0905)
(427.826 28.4423 45.4539)
(468.474 22.0375 44.9966)
(468.885 22.0677 44.9952)
(471.818 22.5781 45.0674)
(507.809 22.0139 45.5571)
(508.141 22.2845 45.7386)
(508.39 22.3601 45.4465)
(460.112 23.5916 45.0863)
(508.305 22.4269 45.5593)
(508.227 22.4206 45.7396)
(479.964 23.4924 46.3945)
(498.965 24.0007 46.0312)
(499.565 24.0012 46.0636)
(499.565 24.0011 46.0637)
(467.611 24.384 46.5706)
(499.565 24.0011 46.0636)
(426.675 28.0023 45.7478)
(413.598 29.0876 45.8844)
(426.082 28.3789 45.6349)
(427.815 28.4714 45.4841)
(428.629 28.6146 45.6641)
(429.351 28.7328 45.9177)
(429.989 28.8062 46.2713)
(430.206 28.6573 46.2773)
(430.816 28.7347 46.5897)
(412.734 29.3607 45.5975)
(413.223 29.2729 45.2734)
(320.888 39.4448 46.6163)
(508.046 22.5717 46.0683)
(475.269 23.0109 46.9983)
(508.316 22.8848 46.0691)
(466.999 24.4403 46.9125)
(475.49 23.019 46.9974)
(475.911 23.0382 46.9955)
(479.944 23.7131 46.852)
(499.565 24.0012 46.0636)
(504.229 24.0152 47.0987)
(504.687 23.7145 47.0396)
(466.84 24.4933 47.0004)
(467.325 24.8989 47.0164)
(504.285 24.1356 47.0891)
(430.813 28.2587 46.2816)
(448.004 28.0616 47.3245)
(414.225 29.17 46.1939)
(429.932 28.6574 46.4213)
(431.589 28.4753 46.9955)
(431.517 28.6866 47.0537)
(433.463 28.9184 47.3585)
(454.355 28.8603 47.4528)
(432.072 28.9607 47.2324)
(433.295 29.0313 47.455)
(433.201 29.2918 47.3985)
(376.749 33.3458 46.7201)
(369.689 37.1711 47.4935)
(320.24 38.1436 46.3334)
(369.787 37.5977 47.4511)
(320.322 38.951 46.5726)
(369.959 37.8942 47.4893)
(370.381 38.343 47.5347)
(370.448 39.1028 47.6574)
(374.731 38.8697 47.6997)
(320.188 39.3843 46.765)
(320.465 39.3772 46.7717)
(475.49 23.019 46.9975)
(475.911 23.0382 46.9955)
(476.496 23.074 46.9917)
(479.781 23.6673 47)
(467.237 24.5688 47.0415)
(504.03 23.7905 47.2424)
(507.671 24.0881 47.7191)
(494.865 25.0387 48.4254)
(507.013 24.2571 47.8431)
(507.533 24.1985 47.9126)
(507.635 24.5283 47.7499)
(480.734 26.0152 48.4448)
(494.763 25.1629 48.5583)
(494.629 25.5107 48.5635)
(480.67 26.1878 48.594)
(480.543 26.5154 48.609)
(431.567 28.586 47.3729)
(454.235 29.2633 47.7361)
(435.967 29.6473 47.8161)
(454.4 29.2163 47.4407)
(461.063 30.1555 47.989)
(461.183 29.9485 47.9584)
(461.497 29.9925 47.993)
(461.214 30.1738 47.9582)
(369.163 36.546 47.5906)
(369.691 36.915 47.76)
(369.803 37.68 47.5188)
(369.636 37.0715 47.8657)
(373.69 38.9918 47.8386)
(373.651 38.9417 47.8308)
(373.745 38.9935 47.8436)
(495.272 25.0399 48.6026)
(494.967 24.9297 48.4947)
(480.823 25.9174 48.5046)
(435.897 29.5894 47.8856)
(461.075 29.9766 48.1806)
(461.861 30.7186 48.4406)
(460.655 32.0288 49.3916)
(460.637 32.2633 49.5225)
(460.455 32.5498 49.4223)
(465.646 32.2536 49.461)
(465.681 32.1101 49.5484)
(441.734 37.8056 49.7297)
(459.921 41.9918 49.1007)
(460.834 41.9959 49.0542)
(459.923 41.9913 49.1004)
(460.834 41.9958 49.0541)
(461.68 41.9981 49.0269)
(266.541 43.4277 49.1322)
(506.775 29.9208 50.2677)
(487.717 31.0305 50.4535)
(506.702 30.1731 50.4412)
(506.739 30.4309 50.2396)
(460.782 31.9577 49.5048)
(463.889 32.2105 49.7486)
(487.677 31.2716 50.5583)
(487.621 31.5295 50.4932)
(491.42 31.4719 50.5072)
(491.491 31.3028 50.5723)
(465.54 32.3797 49.6471)
(491.872 32.1611 50.5993)
(491.822 32.1678 50.5403)
(490.97 37.0013 50.0133)
(491.577 37.0033 50.0289)
(491.577 37.0033 50.029)
(492.324 37.0078 50.0575)
(492.324 37.0077 50.0575)
(491.577 37.0033 50.0289)
(492.324 37.0077 50.0575)
(493.174 37.0165 50.1051)
(466.57 39.1213 49.8729)
(466.715 39.3794 49.8202)
(455.249 41.6552 49.789)
(455.383 41.874 49.8429)
(460.834 41.9958 49.0541)
(506.861 30.0261 50.4883)
(506.621 29.8692 50.4388)
(487.781 30.9892 50.5281)
(490.67 31.4641 50.6897)
(491.293 31.4077 50.6767)
(465.054 32.3069 49.7309)
(491.087 31.8628 50.6615)
(465.866 32.4404 49.6976)
(490.675 32.3452 50.6263)
(492.172 32.6312 50.669)
(492.675 32.3259 50.6895)
(492.286 32.7683 50.6421)
(492.324 37.0078 50.0574)
(497.458 37.2966 50.7548)
(497.585 37.5207 50.7483)
(466.963 39.8636 50.0592)
(455.589 42.1532 50.071)
(490.864 31.6501 50.7238)
(497.089 37.0897 50.874)
(497.889 38.1493 50.9938)
(253.683 44.3196 62.1421)
(252.782 44.419 63.1461)
(240.675 45.2639 74.9461)
(227.542 46.1577 88.1765)
(226.654 46.2921 89.1143)
(223.864 46.3531 91.864)
(223.491 37.2658 97.2973)
(223.214 37.1977 97.8307)
(223.157 37.2531 97.8274)
(223.212 37.2722 97.8543)
(212.3 35.3407 107.927)
(199.669 43.2125 110.59)
(199.793 43.8504 110.774)
(198.757 42.8012 111.368)
(199.082 43.011 111.105)
(199.404 42.9076 110.746)
(199.339 43.2147 110.917)
(197.821 42.717 112.289)
(198.176 42.9045 111.982)
(198.568 42.7858 111.538)
(198.82 42.9631 111.335)
(198.359 42.9991 111.811)
(196.835 42.6977 113.273)
(197.206 42.8667 112.948)
(197.62 42.704 112.466)
(197.866 42.8494 112.255)
(197.149 42.8093 112.962)
(197.396 42.9346 112.758)
(195.848 42.7142 114.261)
(196.223 42.8666 113.931)
(196.635 42.6844 113.447)
(196.886 42.8178 113.229)
(196.162 42.8078 113.949)
(196.414 42.9234 113.739)
(194.868 42.7575 115.239)
(195.245 42.9005 114.91)
(195.648 42.7017 114.434)
(195.899 42.8258 114.217)
(195.431 42.9464 114.722)
(194.25 42.9895 115.909)
(194.668 42.7419 115.409)
(194.913 42.8638 115.201)
(194.168 42.8927 115.936)
(194.44 43.0071 115.709)
(198.287 34.1914 121.571)
(198.11 34.2201 122.021)
(198.057 34.2419 122.07)
(181.29 31.9045 137.515)
(181.926 37.7014 140.822)
(181.843 38.0507 140.926)
(171.245 46.2235 139.91)
(181.379 37.7872 141.29)
(181.568 37.9739 141.158)
(181.78 37.819 140.949)
(181.325 38.1032 141.364)
(170.605 45.8981 140.437)