/*--------------------------------*- C++ -*----------------------------------*\
  =========                 |
  \\      /  F ield         | OpenFOAM: The Open Source CFD Toolbox
   \\    /   O peration     | Website:  https://openfoam.org
    \\  /    A nd           | Version:  12
     \\/     M anipulation  |
\*---------------------------------------------------------------------------*/
FoamFile
{
    format      ascii;
    class       featureEdgeMesh;
    location    "constant/geometry";
    object      aircraftModel.eMesh;
}
// * * * * * * * * * * * * * * * * * * * * * * * * * * * * * * * * * * * * * //


// points:

1748
(
(-0.163509 -0.552577 -0.0569956)
(-0.16344 -0.55149 -0.0572767)
(-0.163181 -0.551226 -0.0571485)
(-0.163363 -0.550303 -0.0573256)
(-0.16292 -0.549542 -0.0573119)
(-0.163041 -0.549212 -0.0573765)
(-0.156637 -0.525885 -0.0571424)
(-0.156594 -0.524793 -0.0574365)
(-0.156354 -0.524528 -0.0573125)
(-0.156539 -0.523601 -0.0574932)
(-0.156138 -0.522837 -0.0574931)
(-0.156257 -0.522506 -0.0575576)
(-0.150143 -0.507476 -0.0568698)
(-0.150208 -0.505239 -0.0572153)
(-0.149844 -0.504723 -0.0570895)
(-0.150185 -0.501684 -0.0572525)
(-0.149846 -0.500467 -0.0576115)
(-0.14983 -0.49689 -0.0576641)
(-0.149266 -0.495182 -0.0575527)
(-0.14947 -0.494617 -0.0576454)
(-0.143484 -0.480651 -0.0568685)
(-0.143551 -0.478452 -0.0571701)
(-0.143212 -0.477943 -0.05707)
(-0.143526 -0.474949 -0.0571989)
(-0.14322 -0.473747 -0.0575355)
(-0.143197 -0.470212 -0.0575835)
(-0.142663 -0.468519 -0.0575025)
(-0.142854 -0.46796 -0.057581)
(-0.13674 -0.452637 -0.0569627)
(-0.136689 -0.451564 -0.0572171)
(-0.136456 -0.451304 -0.0571141)
(-0.136634 -0.450393 -0.0572777)
(-0.136239 -0.449643 -0.0572795)
(-0.136354 -0.449318 -0.0573389)
(-0.130064 -0.425931 -0.0569107)
(-0.130013 -0.424848 -0.0571803)
(-0.129753 -0.424585 -0.0570689)
(-0.129957 -0.423666 -0.0572387)
(-0.129517 -0.422909 -0.0572396)
(-0.129648 -0.42258 -0.0573008)
(-0.123339 -0.399235 -0.0569785)
(-0.123313 -0.398145 -0.0572666)
(-0.123075 -0.397881 -0.0571361)
(-0.123276 -0.396956 -0.0573171)
(-0.122883 -0.396194 -0.0573045)
(-0.123007 -0.395864 -0.0573703)
(-0.116647 -0.372544 -0.0571286)
(-0.116603 -0.37145 -0.0574274)
(-0.116358 -0.371185 -0.0573018)
(-0.116548 -0.370257 -0.057485)
(-0.116138 -0.369493 -0.0574854)
(-0.116259 -0.369161 -0.0575507)
(-0.110165 -0.354013 -0.0568573)
(-0.110232 -0.351808 -0.0571836)
(-0.109876 -0.351298 -0.0570747)
(-0.1102 -0.348298 -0.0572201)
(-0.109877 -0.347094 -0.0575763)
(-0.109847 -0.343555 -0.0576313)
(-0.109286 -0.341861 -0.0575403)
(-0.109485 -0.341301 -0.0576263)
(-0.103377 -0.326004 -0.0570032)
(-0.103327 -0.32494 -0.0572381)
(-0.103114 -0.324683 -0.0571416)
(-0.103277 -0.32378 -0.0572955)
(-0.102913 -0.323037 -0.0572944)
(-0.103019 -0.322715 -0.0573507)
(-0.0967544 -0.29929 -0.0569417)
(-0.0967014 -0.298212 -0.0572051)
(-0.0964598 -0.297951 -0.0570991)
(-0.0966441 -0.297037 -0.0572674)
(-0.0962334 -0.296283 -0.0572707)
(-0.0963528 -0.295957 -0.0573315)
(-0.0900836 -0.272587 -0.0568934)
(-0.0900358 -0.271501 -0.0571708)
(-0.089771 -0.271237 -0.0570569)
(-0.0899822 -0.270316 -0.0572309)
(-0.089536 -0.269557 -0.057233)
(-0.0896704 -0.269228 -0.0572955)
(-0.0832953 -0.245892 -0.0571004)
(-0.0832518 -0.244801 -0.0573899)
(-0.0830174 -0.244537 -0.0572609)
(-0.0831982 -0.243611 -0.0574363)
(-0.0828048 -0.242848 -0.0574288)
(-0.0829206 -0.242517 -0.0574914)
(-0.0766555 -0.219203 -0.0571153)
(-0.0766114 -0.218109 -0.0574185)
(-0.0763617 -0.217844 -0.0572913)
(-0.0765556 -0.216915 -0.0574769)
(-0.0761378 -0.21615 -0.0574778)
(-0.0762616 -0.215818 -0.0575438)
(-0.0701267 -0.200664 -0.0568939)
(-0.0701917 -0.198462 -0.0571807)
(-0.0698691 -0.197952 -0.0570858)
(-0.0701699 -0.194956 -0.0572067)
(-0.0698796 -0.193753 -0.0575291)
(-0.06986 -0.190217 -0.0575738)
(-0.0693511 -0.188523 -0.0574978)
(-0.069534 -0.187964 -0.0575719)
(-0.0633934 -0.172652 -0.0569816)
(-0.0633426 -0.171583 -0.0572271)
(-0.0631195 -0.171324 -0.0571271)
(-0.0632905 -0.170417 -0.0572863)
(-0.0629095 -0.16967 -0.0572868)
(-0.0630204 -0.169346 -0.0573448)
(-0.0567249 -0.145942 -0.0569136)
(-0.056675 -0.144862 -0.0571796)
(-0.0564214 -0.1446 -0.0570704)
(-0.0566206 -0.143683 -0.0572395)
(-0.0561914 -0.142927 -0.0572406)
(-0.056319 -0.1426 -0.0573017)
(-0.0499852 -0.119243 -0.0569939)
(-0.0499519 -0.118155 -0.0572757)
(-0.0497131 -0.117891 -0.0571473)
(-0.0499061 -0.116968 -0.0573248)
(-0.0495099 -0.116207 -0.0573112)
(-0.0496312 -0.115878 -0.0573758)
(-0.0433051 -0.0925505 -0.057141)
(-0.0432614 -0.0914584 -0.0574355)
(-0.0430216 -0.0911934 -0.0573114)
(-0.0432071 -0.0902664 -0.0574924)
(-0.0428049 -0.0895026 -0.0574923)
(-0.0429236 -0.0891716 -0.0575569)
(-0.0368104 -0.0741409 -0.0568247)
(-0.0368757 -0.0719039 -0.0571522)
(-0.0365105 -0.0713885 -0.0570141)
(-0.0368529 -0.0683492 -0.057134)
(-0.0365129 -0.0671327 -0.0575008)
(-0.0364968 -0.0635562 -0.0575031)
(-0.0359317 -0.0618479 -0.0573644)
(-0.0361367 -0.0612834 -0.057454)
(-0.155576 -0.562402 -0.0477006)
(-0.157432 -0.561009 -0.0481609)
(-0.156981 -0.559305 -0.0500028)
(-0.16343 -0.552247 -0.0568765)
(-0.157314 -0.554774 -0.0497506)
(-0.163225 -0.550564 -0.0570915)
(-0.156857 -0.542526 -0.0510568)
(-0.154597 -0.541117 -0.051922)
(-0.150551 -0.539058 -0.0505514)
(-0.156565 -0.525553 -0.0570235)
(-0.148357 -0.525876 -0.0512685)
(-0.149212 -0.52804 -0.0510163)
(-0.148431 -0.527971 -0.0506332)
(-0.156403 -0.523863 -0.0572555)
(-0.150041 -0.50692 -0.0566852)
(-0.142682 -0.501168 -0.0506863)
(-0.1439 -0.499925 -0.049209)
(-0.149668 -0.497406 -0.0573152)
(-0.139665 -0.494764 -0.051253)
(-0.143386 -0.480105 -0.0567054)
(-0.136103 -0.474593 -0.0506602)
(-0.137302 -0.473323 -0.0491487)
(-0.143037 -0.470721 -0.0572716)
(-0.132992 -0.468134 -0.0512712)
(-0.136673 -0.452312 -0.0568681)
(-0.136507 -0.450651 -0.0570768)
(-0.129462 -0.447291 -0.0507403)
(-0.130635 -0.447744 -0.0489208)
(-0.126212 -0.441168 -0.0510625)
(-0.12806 -0.438899 -0.0507759)
(-0.126694 -0.436071 -0.0485663)
(-0.12499 -0.435199 -0.0509907)
(-0.129989 -0.425602 -0.0568063)
(-0.124068 -0.427623 -0.0496714)
(-0.122044 -0.426861 -0.0511119)
(-0.129811 -0.423926 -0.0570234)
(-0.119433 -0.421073 -0.0516365)
(-0.123524 -0.41571 -0.050913)
(-0.121268 -0.414356 -0.0518286)
(-0.117287 -0.412384 -0.0504843)
(-0.12327 -0.398904 -0.0568568)
(-0.116112 -0.401351 -0.0510226)
(-0.115315 -0.401271 -0.0506235)
(-0.123133 -0.397218 -0.0570777)
(-0.113791 -0.382649 -0.0485641)
(-0.116573 -0.372211 -0.0570079)
(-0.11067 -0.37444 -0.0496365)
(-0.108601 -0.373803 -0.051082)
(-0.116408 -0.37052 -0.0572437)
(-0.106033 -0.368182 -0.0515366)
(-0.110062 -0.353465 -0.0566839)
(-0.102748 -0.347912 -0.0506741)
(-0.103973 -0.346647 -0.0491519)
(-0.109682 -0.344065 -0.0572976)
(-0.0996553 -0.341461 -0.0512561)
(-0.103317 -0.325681 -0.0569162)
(-0.103162 -0.324036 -0.0571093)
(-0.0960775 -0.320605 -0.0507341)
(-0.0972322 -0.321062 -0.0489454)
(-0.0928314 -0.314519 -0.0510742)
(-0.0946348 -0.312264 -0.050792)
(-0.0932977 -0.309534 -0.0485187)
(-0.0917698 -0.308803 -0.0509063)
(-0.0966841 -0.298963 -0.0568435)
(-0.0907838 -0.30138 -0.0494916)
(-0.0965112 -0.297296 -0.0570597)
(-0.0890956 -0.293818 -0.0509061)
(-0.0901321 -0.293319 -0.0502605)
(-0.0862708 -0.287796 -0.0510796)
(-0.088286 -0.285374 -0.0506573)
(-0.0869027 -0.282435 -0.0486893)
(-0.0851532 -0.281775 -0.0508722)
(-0.0900078 -0.272257 -0.056786)
(-0.0841504 -0.274231 -0.0495554)
(-0.0820949 -0.273522 -0.0510234)
(-0.0898321 -0.270577 -0.0570097)
(-0.0794343 -0.267766 -0.0515987)
(-0.0835256 -0.262412 -0.0508898)
(-0.0812666 -0.261064 -0.0518389)
(-0.0772715 -0.259074 -0.0505165)
(-0.083225 -0.245561 -0.056976)
(-0.0760145 -0.247946 -0.0510197)
(-0.0752245 -0.247863 -0.0506177)
(-0.083065 -0.243873 -0.0571963)
(-0.072803 -0.242067 -0.0514824)
(-0.0737328 -0.229236 -0.0485672)
(-0.0765804 -0.218871 -0.0569928)
(-0.0706756 -0.220894 -0.0495302)
(-0.0686831 -0.220197 -0.0509148)
(-0.0764126 -0.217178 -0.0572321)
(-0.0700339 -0.200117 -0.0567379)
(-0.0627549 -0.194591 -0.0506521)
(-0.0639512 -0.193318 -0.0491518)
(-0.0697067 -0.190726 -0.0572761)
(-0.0596485 -0.188131 -0.051226)
(-0.0633297 -0.172328 -0.0568904)
(-0.0631689 -0.170674 -0.0570921)
(-0.0561245 -0.167292 -0.0506974)
(-0.0572624 -0.167743 -0.0489187)
(-0.0528792 -0.161172 -0.0510464)
(-0.0546944 -0.158911 -0.0507814)
(-0.0533486 -0.156085 -0.0485523)
(-0.0516455 -0.155212 -0.0509878)
(-0.0566521 -0.145614 -0.056812)
(-0.0507502 -0.147641 -0.0496205)
(-0.0487104 -0.146878 -0.0510952)
(-0.0564786 -0.143942 -0.0570278)
(-0.0461101 -0.141067 -0.0516209)
(-0.0502174 -0.135693 -0.0508655)
(-0.0479346 -0.134314 -0.0518112)
(-0.0439308 -0.132311 -0.0504887)
(-0.0499144 -0.118913 -0.0568745)
(-0.0427303 -0.12128 -0.0510687)
(-0.0419117 -0.121196 -0.050656)
(-0.0497655 -0.11723 -0.0570901)
(-0.0435196 -0.109699 -0.0508766)
(-0.0413383 -0.108217 -0.0517628)
(-0.0373599 -0.105948 -0.0504402)
(-0.0432331 -0.0922187 -0.0570219)
(-0.0346428 -0.0926901 -0.0512969)
(-0.0354013 -0.0947548 -0.0511577)
(-0.0346641 -0.094665 -0.0507542)
(-0.0430703 -0.0905288 -0.0572543)
(-0.0324568 -0.0888034 -0.0513328)
(-0.0367086 -0.0735852 -0.0566202)
(-0.0363343 -0.0640717 -0.0571399)
(-0.154593 -0.562627 -0.0438687)
(-0.0848913 -0.280253 -0.046313)
(-0.109717 -0.561529 -0.010715)
(-0.111278 -0.561508 -0.0114571)
(-0.11061 -0.561429 -0.00893245)
(-0.0704332 -0.435105 -0.00455366)
(-0.0695441 -0.434072 -0.00384956)
(-0.0695304 -0.433065 -0.00373744)
(0.118924 0.558454 -0.00194831)
(-0.104959 -0.557189 0.00101278)
(-0.102467 -0.555175 0.00106715)
(-0.0813998 -0.555622 0.00260848)
(-0.0838434 -0.553194 0.00285491)
(-0.0756892 -0.556881 0.00428002)
(-0.0841138 -0.550092 0.0022523)
(-0.071288 -0.495919 0.0024055)
(-0.0690008 -0.496041 0.00192202)
(-0.0696316 -0.494366 0.00277272)
(-0.0666552 -0.487035 0.00286696)
(-0.0689649 -0.48452 0.00326504)
(-0.0698272 -0.482134 0.00275011)
(-0.0688054 -0.479102 0.00250568)
(-0.065331 -0.475006 0.00141963)
(-0.0649949 -0.467721 0.00280026)
(-0.0426021 -0.371573 0.0023649)
(0.0305479 -0.361115 0.00366705)
(-0.0337051 -0.334182 0.00407731)
(0.043622 -0.227873 0.003535)
(0.00607192 0.172452 0.0037451)
(-0.00628433 0.2246 0.00220158)
(-0.00990845 0.245749 0.00140771)
(-0.00803017 0.246692 0.00245177)
(-0.0127971 0.251291 0.00206636)
(-0.0198974 0.277994 0.00188408)
(-0.0250978 0.304999 0.00259211)
(-0.0336087 0.339862 0.00333233)
(-0.0372653 0.343426 0.00293533)
(-0.0400662 0.366619 0.00329064)
(-0.0435841 0.370357 0.00281211)
(-0.0490368 0.396177 0.00311949)
(-0.0502632 0.399311 0.00272784)
(-0.04895 0.40177 0.00247675)
(-0.0500894 0.411507 0.00313575)
(-0.0513503 0.413242 0.00315158)
(-0.0555622 0.421953 0.0030934)
(-0.0567612 0.425296 0.0027007)
(-0.055323 0.428056 0.00247033)
(-0.0566837 0.438313 0.00309444)
(-0.0578981 0.43987 0.00311825)
(-0.0665109 0.47144 0.0020629)
(-0.0837432 0.556842 0.00260223)
(-0.0813896 0.558453 0.00228949)
(-0.0812289 0.559325 0.00401029)
(-0.102546 -0.541013 0.00441893)
(-0.0979017 -0.535217 0.00337999)
(-0.0706504 -0.496039 0.00384833)
(-0.084338 -0.481854 0.00320692)
(-0.0538226 -0.467196 0.00894058)
(-0.0819127 -0.460853 0.00402329)
(-0.0472073 -0.44057 0.00929933)
(-0.0404601 -0.413933 0.00924338)
(-0.062285 -0.387455 0.00431191)
(-0.0575648 -0.381872 0.00339887)
(-0.0483562 -0.334149 0.00383229)
(-0.0440613 -0.32852 0.00320007)
(-0.041802 -0.307526 0.00405489)
(-0.0293166 -0.26101 0.00434945)
(-0.0241435 -0.255138 0.00338039)
(-0.0446978 0.391222 0.00517879)
(-0.0505812 0.412201 0.00384408)
(-0.0511675 0.41739 0.00517037)
(-0.0571709 0.43894 0.0038398)
(-0.0628662 0.462424 0.00422302)
(-0.354926 -0.01497 0.0430289)
(-0.348677 0.0261833 0.0444857)
(0.0368397 -0.548148 0.0429084)
(-0.355959 -0.013333 0.0452394)
(-0.353372 -0.013885 0.047406)
(-0.349754 0.0229508 0.0476339)
(-0.0353394 -0.101071 -0.0374601)
(-0.0341984 -0.121273 -0.0306367)
(-0.0311209 -0.139517 -0.0187078)
(-0.0307241 -0.139703 -0.016385)
(0.202698 -0.162126 -0.00466045)
(-0.000251716 -0.174656 -0.00121502)
(0.11179 -0.168476 0.00193543)
(0.111773 -0.166522 0.00140255)
(0.20407 -0.160922 -0.00460692)
(0.11088 -0.167419 0.00227541)
(0.143263 0.245789 0.0497969)
(-0.154589 -0.559771 -0.0487391)
(-0.155628 -0.554035 -0.0509511)
(-0.155288 -0.555902 -0.0494852)
(-0.153553 -0.551766 -0.0485593)
(-0.146656 -0.525436 -0.0487167)
(-0.141202 -0.505859 -0.0497885)
(-0.141585 -0.501478 -0.0493508)
(-0.140025 -0.497821 -0.0482797)
(-0.135369 -0.493265 -0.0494293)
(-0.134647 -0.479313 -0.0497826)
(-0.13507 -0.474917 -0.0493422)
(-0.133476 -0.471137 -0.0482668)
(-0.128333 -0.466086 -0.049561)
(-0.128181 -0.452333 -0.0500135)
(-0.128489 -0.447937 -0.0493547)
(-0.126752 -0.444242 -0.0483384)
(-0.122007 -0.439247 -0.0492143)
(-0.121457 -0.432356 -0.0498197)
(-0.121485 -0.42818 -0.0496331)
(-0.11989 -0.424434 -0.0486009)
(-0.115314 -0.419618 -0.0497699)
(-0.113437 -0.398714 -0.048668)
(-0.107815 -0.379094 -0.0500239)
(-0.108005 -0.375037 -0.0496045)
(-0.106452 -0.371417 -0.0484959)
(-0.101865 -0.366848 -0.0496133)
(-0.101284 -0.352641 -0.0498126)
(-0.101694 -0.348242 -0.0493269)
(-0.100081 -0.344503 -0.0482499)
(-0.0949937 -0.339415 -0.0494638)
(-0.0948524 -0.325662 -0.0499488)
(-0.0951491 -0.321257 -0.0493575)
(-0.0933961 -0.317558 -0.0483768)
(-0.088708 -0.312604 -0.0492421)
(-0.0885618 -0.305686 -0.0497399)
(-0.0892629 -0.29938 -0.0499676)
(-0.0887553 -0.294811 -0.0501812)
(-0.0866564 -0.291043 -0.0486475)
(-0.0815467 -0.279002 -0.0497524)
(-0.0815342 -0.274852 -0.0495272)
(-0.079912 -0.271101 -0.0485117)
(-0.0753 -0.266303 -0.0497302)
(-0.0733885 -0.245349 -0.0486712)
(-0.0677701 -0.225609 -0.0497898)
(-0.0680937 -0.221322 -0.0494169)
(-0.0666069 -0.217734 -0.0483255)
(-0.0661933 -0.214617 -0.0513269)
(-0.062021 -0.213279 -0.0494559)
(-0.0612942 -0.199318 -0.0497944)
(-0.0617047 -0.194916 -0.0493448)
(-0.0600814 -0.191161 -0.0482797)
(-0.0549885 -0.186083 -0.0494919)
(-0.0548813 -0.172332 -0.049925)
(-0.0551785 -0.167935 -0.0493286)
(-0.0534275 -0.164242 -0.0483307)
(-0.0486869 -0.159252 -0.0492107)
(-0.0481179 -0.152377 -0.0498204)
(-0.0481611 -0.14821 -0.0495999)
(-0.0466183 -0.144458 -0.0485522)
(-0.0419785 -0.139578 -0.0497688)
(-0.0400821 -0.118519 -0.0487217)
(-0.0331801 -0.092136 -0.0486056)
(-0.156996 -0.560314 -0.0466374)
(-0.15488 -0.557829 -0.0473189)
(-0.155984 -0.554135 -0.0490383)
(-0.149873 -0.554276 -0.0470196)
(-0.153306 -0.555571 -0.0437946)
(-0.156361 -0.549541 -0.0484555)
(-0.153301 -0.547992 -0.0432754)
(-0.152774 -0.538966 -0.0450986)
(-0.143626 -0.540061 -0.0473775)
(-0.148844 -0.534852 -0.047392)
(-0.143761 -0.528085 -0.0470055)
(-0.146721 -0.528529 -0.0433665)
(-0.149147 -0.523069 -0.0486266)
(-0.146428 -0.521435 -0.0432152)
(-0.135905 -0.507231 -0.0467867)
(-0.141253 -0.503419 -0.046999)
(-0.142224 -0.499536 -0.0486595)
(-0.136404 -0.500125 -0.0468514)
(-0.139862 -0.501477 -0.0434331)
(-0.1426 -0.495426 -0.0481126)
(-0.139754 -0.494372 -0.0431435)
(-0.129129 -0.480745 -0.0469132)
(-0.134687 -0.47684 -0.0469817)
(-0.135698 -0.472936 -0.0486292)
(-0.12946 -0.473231 -0.0468873)
(-0.13341 -0.474758 -0.043306)
(-0.136093 -0.468742 -0.0480284)
(-0.133415 -0.467514 -0.0429769)
(-0.123481 -0.453632 -0.047947)
(-0.128192 -0.450103 -0.0470303)
(-0.128965 -0.44619 -0.0486853)
(-0.122913 -0.446644 -0.0470056)
(-0.126694 -0.448063 -0.0433502)
(-0.128664 -0.442007 -0.048778)
(-0.117024 -0.433622 -0.0474033)
(-0.121321 -0.430349 -0.0471936)
(-0.122259 -0.42651 -0.048993)
(-0.11626 -0.426915 -0.0471177)
(-0.119757 -0.428427 -0.0433192)
(-0.122858 -0.42232 -0.0483943)
(-0.119897 -0.420973 -0.0434078)
(-0.119607 -0.412289 -0.0450332)
(-0.110326 -0.413359 -0.0473425)
(-0.115671 -0.408224 -0.0472383)
(-0.110507 -0.401393 -0.0468047)
(-0.113461 -0.401839 -0.0432987)
(-0.11594 -0.396341 -0.0486373)
(-0.113112 -0.394702 -0.0432293)
(-0.103389 -0.380393 -0.0476797)
(-0.107898 -0.377099 -0.0472619)
(-0.108775 -0.373384 -0.0489196)
(-0.10291 -0.373907 -0.0471121)
(-0.106374 -0.375036 -0.0435355)
(-0.109198 -0.369111 -0.0483041)
(-0.106362 -0.367818 -0.0431926)
(-0.0958863 -0.354093 -0.046868)
(-0.101327 -0.350172 -0.0469931)
(-0.102335 -0.34627 -0.0485958)
(-0.0961099 -0.346574 -0.046843)
(-0.0999622 -0.34818 -0.0434168)
(-0.102724 -0.342119 -0.0480221)
(-0.0999218 -0.341041 -0.0430841)
(-0.090162 -0.326961 -0.0478514)
(-0.0948542 -0.323435 -0.0470231)
(-0.095597 -0.319506 -0.0487305)
(-0.0895843 -0.319962 -0.0470202)
(-0.0933892 -0.321399 -0.0433453)
(-0.0952537 -0.315333 -0.0488247)
(-0.0838545 -0.307046 -0.0473225)
(-0.0882697 -0.303634 -0.0469814)
(-0.089772 -0.299975 -0.0491008)
(-0.0828091 -0.300922 -0.0460234)
(-0.0859382 -0.301388 -0.042791)
(-0.0895119 -0.295344 -0.0496862)
(-0.0823741 -0.293921 -0.046258)
(-0.0851004 -0.29418 -0.042618)
(-0.0887959 -0.288601 -0.0492268)
(-0.0860994 -0.286607 -0.0452191)
(-0.0770958 -0.280274 -0.0473747)
(-0.0813811 -0.276954 -0.0471503)
(-0.0822987 -0.273188 -0.0488549)
(-0.0762903 -0.273563 -0.0470338)
(-0.079774 -0.274843 -0.0435407)
(-0.0828767 -0.269005 -0.0482711)
(-0.0799424 -0.267596 -0.0433166)
(-0.0796316 -0.258963 -0.0449818)
(-0.0702644 -0.260003 -0.0473428)
(-0.0756538 -0.25487 -0.0472722)
(-0.0705115 -0.248061 -0.0468764)
(-0.0734543 -0.248476 -0.0432346)
(-0.0758646 -0.242981 -0.0486318)
(-0.0626024 -0.227284 -0.046804)
(-0.0678913 -0.223502 -0.0470584)
(-0.0688542 -0.219677 -0.0487543)
(-0.0630629 -0.220153 -0.0468774)
(-0.0665027 -0.221452 -0.043456)
(-0.0692568 -0.215536 -0.0481879)
(-0.0664466 -0.21435 -0.0431447)
(-0.0557665 -0.200753 -0.0469255)
(-0.0613188 -0.196844 -0.0470073)
(-0.062327 -0.192938 -0.0486354)
(-0.0560748 -0.19324 -0.0468975)
(-0.0599655 -0.194829 -0.0434239)
(-0.0626945 -0.188771 -0.0480553)
(-0.0599257 -0.187646 -0.043115)
(-0.0501891 -0.173629 -0.0478394)
(-0.0548601 -0.170099 -0.0470088)
(-0.0556256 -0.166188 -0.0486984)
(-0.0496134 -0.16664 -0.0469619)
(-0.0533523 -0.168058 -0.0433455)
(-0.0553039 -0.162013 -0.0487889)
(-0.0437081 -0.153634 -0.0474028)
(-0.0480218 -0.150377 -0.047146)
(-0.0489599 -0.146542 -0.0489257)
(-0.0429639 -0.146924 -0.0471036)
(-0.0465623 -0.148455 -0.0432483)
(-0.0496027 -0.142345 -0.0483086)
(-0.0467342 -0.141001 -0.0433397)
(-0.046349 -0.132306 -0.0450121)
(-0.0369153 -0.133235 -0.0473611)
(-0.0423126 -0.128164 -0.0472561)
(-0.0371925 -0.1212 -0.0468542)
(-0.0399754 -0.121754 -0.0433149)
(-0.0427355 -0.116327 -0.0487036)
(-0.0395148 -0.114546 -0.0433184)
(-0.0302847 -0.106416 -0.0471969)
(-0.0353036 -0.101467 -0.0472291)
(-0.0347582 -0.0983414 -0.0447001)
(-0.0298849 -0.0940583 -0.0469234)
(-0.0343851 -0.0954513 -0.0426159)
(-0.036125 -0.0894545 -0.0475655)
(-0.0825036 -0.282094 -0.0420217)
(-0.112091 -0.558989 -0.0155876)
(-0.114997 -0.560771 -0.0098479)
(-0.109524 -0.558634 -0.00359865)
(-0.104262 -0.555271 -0.00712734)
(-0.0702179 -0.430234 -0.00422867)
(-0.000667477 -0.167579 -0.00359986)
(-0.0648272 -0.499465 0.00130137)
(-0.0673025 -0.496167 0.003961)
(-0.062786 -0.495543 0.00447525)
(-0.0617022 -0.491968 0.0046495)
(-0.0588978 -0.494214 0.00172687)
(0.153931 -0.479158 0.00247023)
(-0.0583691 -0.473108 0.00116218)
(-0.0629862 -0.467541 0.00187841)
(-0.060809 -0.468308 0.00384396)
(-0.056235 -0.468973 0.00446229)
(-0.0540261 -0.465222 0.00526338)
(-0.0523537 -0.467564 0.00209133)
(-0.0615621 -0.460225 0.00227485)
(-0.0613279 -0.461941 0.00395566)
(-0.0539819 -0.460403 0.00402383)
(-0.0483618 -0.460539 0.00138975)
(-0.058064 -0.458086 0.00402011)
(-0.0557457 -0.455208 0.00139424)
(-0.0514845 -0.44635 0.00130588)
(-0.0564717 -0.440813 0.00194988)
(-0.0540449 -0.441546 0.00382355)
(-0.0493322 -0.442215 0.00449355)
(-0.0471409 -0.438587 0.00524871)
(-0.0443205 -0.440152 0.00176253)
(-0.0702861 -0.434525 -0.00278284)
(-0.0722445 -0.435236 0.00119321)
(-0.0550131 -0.43366 0.00225596)
(-0.0545442 -0.435314 0.00401761)
(-0.0472426 -0.433776 0.00385904)
(-0.0426378 -0.432457 0.000783623)
(-0.0513165 -0.431625 0.0039851)
(-0.049206 -0.428669 0.00127196)
(-0.0447344 -0.419799 0.00128712)
(-0.0497476 -0.414214 0.00194231)
(-0.0473022 -0.414935 0.00381962)
(-0.0425916 -0.41561 0.00448973)
(-0.0404226 -0.411951 0.00525582)
(-0.0375695 -0.413507 0.00166056)
(-0.048286 -0.407015 0.00222127)
(-0.0477974 -0.408674 0.00401023)
(-0.0405277 -0.407141 0.0038946)
(-0.0359752 -0.405804 0.000849729)
(-0.0445808 -0.404999 0.0039938)
(-0.0424949 -0.401987 0.00131976)
(-0.0379518 -0.393088 0.00134196)
(-0.0429633 -0.387488 0.00204298)
(-0.0404804 -0.388249 0.00385911)
(-0.0359792 -0.389087 0.00399112)
(-0.0341448 -0.386455 0.00388192)
(-0.0415767 -0.380265 0.00224959)
(-0.0410983 -0.38193 0.00408945)
(-0.0346023 -0.381487 0.00398061)
(-0.0381871 -0.378465 0.00397101)
(-0.0313994 -0.366349 0.00127241)
(-0.0352334 -0.359916 0.00197524)
(-0.0334085 -0.362081 0.00299084)
(-0.0317152 -0.362789 0.00437665)
(-0.0295612 -0.359645 0.00290658)
(-0.0244875 -0.36029 0.00119692)
(-0.0326249 -0.358812 0.00432036)
(-0.00576467 -0.182222 0.000883268)
(0.000921089 -0.181283 0.00166178)
(-0.00210328 -0.178531 0.00131803)
(0.00206601 -0.169594 0.00106965)
(0.00023384 -0.166212 0.00186994)
(0.00546777 -0.167338 0.00252067)
(0.00860044 -0.167223 -0.00051089)
(0.11556 -0.167357 0.000261025)
(0.00447042 -0.164884 0.00441888)
(0.00588062 -0.16357 -0.00102222)
(0.00418304 0.166631 -0.000601275)
(0.00409963 0.168426 0.00472084)
(0.00915032 0.172591 0.000646042)
(0.00189804 0.219956 0.00145748)
(-0.00192447 0.226002 0.00154885)
(-0.000261978 0.223703 0.00299809)
(0.00188156 0.222849 0.00426218)
(0.00420425 0.226136 0.00294165)
(0.000599612 0.227113 0.00445066)
(-0.00477062 0.240597 0.00106281)
(-0.00450563 0.243037 0.0033127)
(-0.00234865 0.243732 0.00506923)
(0.00210013 0.246075 0.00146769)
(-0.00896833 0.252854 0.00163184)
(-0.00836843 0.251012 0.00298054)
(-0.00645693 0.253645 0.00447297)
(-0.0116622 0.273411 0.00104811)
(-0.015481 0.279495 0.00121648)
(-0.0137334 0.277481 0.00272715)
(-0.0114114 0.276685 0.00416861)
(-0.00898297 0.279915 0.00290236)
(-0.0128042 0.280894 0.00432448)
(-0.00860237 0.284322 0.00106422)
(-0.0183587 0.300163 0.00115701)
(-0.0218371 0.306354 0.00166613)
(-0.0201486 0.304078 0.00278146)
(-0.0179936 0.303297 0.00414834)
(-0.0157727 0.306659 0.00292099)
(-0.0196424 0.30756 0.00419737)
(-0.0247729 0.326766 0.00126608)
(-0.0285599 0.333249 0.00184699)
(-0.0268568 0.33079 0.00278727)
(-0.0247389 0.32999 0.0041339)
(-0.0225644 0.333417 0.00287733)
(-0.0262451 0.334117 0.00418503)
(-0.0313891 0.353215 0.00124724)
(-0.0351166 0.359794 0.00185101)
(-0.0334251 0.357324 0.00281837)
(-0.0314202 0.35657 0.00410973)
(-0.0292042 0.359809 0.00284218)
(-0.0328059 0.360682 0.00422252)
(-0.0375766 0.379953 0.00158063)
(-0.0416932 0.386521 0.00181146)
(-0.0400799 0.384284 0.00447735)
(-0.0356516 0.383544 0.00440952)
(-0.0349322 0.386568 0.0042928)
(-0.0298662 0.385333 0.00186288)
(-0.0378797 0.38728 0.00364994)
(-0.0355531 0.391157 0.00133057)
(-0.0489133 0.414232 0.00227233)
(-0.0433441 0.407767 0.0033344)
(-0.048448 0.412675 0.00419813)
(-0.0422402 0.411034 0.0051242)
(-0.0369353 0.411836 0.00182046)
(-0.045138 0.413372 0.00385348)
(-0.0554743 0.44089 0.00220559)
(-0.0498261 0.434655 0.00326637)
(-0.0550651 0.439428 0.00420235)
(-0.0488713 0.437875 0.00511192)
(-0.0447287 0.439012 0.0013638)
(-0.0517572 0.440182 0.00384114)
(-0.0488346 0.444293 0.00133724)
(-0.0580549 0.460424 0.00112291)
(-0.0618491 0.466536 0.00152808)
(-0.0602178 0.465361 0.00370905)
(-0.057742 0.462824 0.00359485)
(-0.0556025 0.464803 0.00524918)
(-0.0513189 0.465717 0.00137175)
(-0.0580596 0.467094 0.00364972)
(-0.0554567 0.471114 0.00131323)
(-0.0701752 -0.501001 0.00674263)
(-0.0649391 -0.497715 0.00771912)
(-0.0607465 -0.493999 0.0089547)
(-0.0615632 -0.487303 0.00842882)
(-0.0583582 -0.471435 0.0076581)
(-0.0595625 -0.456166 0.00532544)
(-0.0543642 -0.454235 0.00792339)
(-0.0515763 -0.44465 0.00761132)
(-0.0528223 -0.429592 0.00539829)
(-0.0475641 -0.427721 0.0078666)
(-0.0448193 -0.418031 0.00756684)
(-0.0460504 -0.402975 0.00544024)
(-0.0408126 -0.401157 0.00788847)
(-0.0382516 -0.391446 0.00726464)
(-0.0353186 -0.386996 0.0076143)
(-0.0397819 -0.376411 0.00540118)
(-0.0351806 -0.375352 0.0081485)
(-0.0371664 -0.368835 0.00589764)
(-0.0324576 -0.365815 0.0086557)
(-0.0358281 -0.362037 0.0044251)
(-0.0311035 -0.35966 0.00774509)
(-0.0310507 -0.360291 0.00474478)
(-0.0353126 -0.354707 0.00589236)
(-0.0320739 -0.355505 0.00789695)
(-0.00860894 -0.180812 0.00379158)
(0.0023475 -0.180417 0.00482755)
(-0.00333062 -0.176702 0.00409667)
(0.00300239 -0.172409 0.00474441)
(-0.00867403 -0.167432 0.00648398)
(-0.00268555 -0.169918 0.00469889)
(0.00866583 -0.169095 0.00685275)
(-0.00138669 -0.16495 0.00894712)
(-0.00238876 0.216759 0.00504539)
(0.00253088 0.219347 0.00852029)
(-0.00409068 0.224774 0.00414584)
(0.00265158 0.225224 0.00478262)
(-7.5181e-05 0.233005 0.00857242)
(-0.00528458 0.237855 0.00613897)
(-0.001418 0.239369 0.00844121)
(-0.0111771 0.251322 0.00382374)
(-0.0159581 0.270484 0.0051896)
(-0.0107722 0.273278 0.00854619)
(-0.0176275 0.27836 0.00402464)
(-0.0108477 0.27997 0.00770293)
(-0.0106698 0.279246 0.00466157)
(-0.0224699 0.297045 0.00510254)
(-0.0174864 0.299851 0.00855409)
(-0.0227558 0.30378 0.00376986)
(-0.0176981 0.306627 0.00770249)
(-0.0174958 0.305982 0.00465389)
(-0.0254418 0.311369 0.00488189)
(-0.0286711 0.323949 0.00523909)
(-0.0241899 0.326478 0.00858679)
(-0.0291195 0.330455 0.00392566)
(-0.0247393 0.333336 0.00756871)
(-0.0243636 0.33275 0.00460002)
(-0.0303238 0.33735 0.00574901)
(-0.0270448 0.337442 0.00785851)
(-0.035644 0.350597 0.00503001)
(-0.0314759 0.35407 0.00812064)
(-0.0357408 0.356992 0.00396045)
(-0.031248 0.360153 0.00762315)
(-0.030915 0.3593 0.00462944)
(-0.0368398 0.364027 0.00580956)
(-0.0334235 0.364212 0.00799659)
(-0.0376943 0.381194 0.00700774)
(-0.03516 0.384109 0.0077861)
(-0.0373211 0.388241 0.00755272)
(-0.0443205 0.404484 0.00616551)
(-0.0412169 0.4112 0.00860764)
(-0.0441154 0.414358 0.00768793)
(-0.0507856 0.440953 0.00781399)
(-0.0586592 0.458004 0.00657366)
(-0.0541711 0.464876 0.00870006)
(-0.0571426 0.46815 0.00759428)
(-0.0322535 0.385475 0.011752)
(-0.324307 -0.0447237 0.0489671)
(-0.163571 -0.551948 -0.0570269)
(-0.163091 -0.549844 -0.057447)
(-0.156704 -0.525252 -0.0571753)
(-0.156296 -0.52314 -0.0576263)
(-0.150275 -0.506211 -0.0568256)
(-0.149445 -0.498969 -0.0573851)
(-0.149429 -0.495904 -0.0577649)
(-0.143603 -0.479408 -0.0568204)
(-0.142838 -0.472266 -0.0573438)
(-0.142824 -0.469234 -0.0576906)
(-0.136806 -0.452016 -0.0569992)
(-0.13639 -0.44994 -0.0573879)
(-0.13014 -0.425304 -0.0569453)
(-0.129686 -0.423209 -0.0573579)
(-0.123415 -0.398604 -0.0570103)
(-0.123039 -0.396496 -0.0574423)
(-0.116715 -0.371911 -0.0571619)
(-0.116299 -0.369796 -0.0576205)
(-0.110288 -0.352766 -0.0568097)
(-0.109475 -0.345611 -0.0573702)
(-0.109455 -0.342576 -0.0577411)
(-0.103437 -0.325388 -0.0570386)
(-0.10305 -0.323332 -0.0573948)
(-0.0968218 -0.298666 -0.0569787)
(-0.0963908 -0.296582 -0.0573826)
(-0.0901628 -0.271958 -0.0569287)
(-0.089708 -0.269858 -0.0573543)
(-0.0833605 -0.24526 -0.0571279)
(-0.082959 -0.24315 -0.0575676)
(-0.0767255 -0.21857 -0.0571489)
(-0.0763021 -0.216453 -0.0576148)
(-0.0702407 -0.199419 -0.0568469)
(-0.0695163 -0.192271 -0.0573466)
(-0.0695049 -0.189238 -0.0576774)
(-0.0634567 -0.172033 -0.0570176)
(-0.0630541 -0.169965 -0.0573916)
(-0.0567991 -0.145317 -0.0569493)
(-0.0563562 -0.143226 -0.0573561)
(-0.0500565 -0.118613 -0.0570252)
(-0.0496668 -0.116509 -0.0574466)
(-0.043372 -0.0919181 -0.0571739)
(-0.0429628 -0.0898055 -0.0576257)
(-0.0369426 -0.0728757 -0.0567544)
(-0.0361115 -0.0656347 -0.0572402)
(-0.0360951 -0.0625698 -0.0576003)
(-0.0302733 -0.0455098 -0.0571148)
(-0.0302768 -0.049382 -0.0555873)
(-0.029076 -0.0428266 -0.0576534)
(-0.0271504 -0.0420089 -0.0573603)
(-0.155879 -0.546742 -0.0520182)
(-0.1576 -0.546881 -0.0503902)
(-0.153026 -0.548123 -0.0516271)
(-0.154303 -0.538993 -0.0495548)
(-0.149761 -0.52514 -0.0508106)
(-0.150331 -0.520431 -0.0503456)
(-0.146083 -0.522087 -0.0514862)
(-0.149971 -0.516496 -0.0511526)
(-0.148074 -0.514735 -0.0522537)
(-0.148795 -0.520408 -0.0519493)
(-0.148527 -0.512504 -0.0509098)
(-0.144928 -0.509841 -0.0514525)
(-0.146417 -0.508077 -0.0490177)
(-0.149912 -0.503171 -0.0568793)
(-0.14236 -0.493288 -0.051672)
(-0.143792 -0.493077 -0.0500303)
(-0.14327 -0.489241 -0.0511592)
(-0.141416 -0.487644 -0.0522319)
(-0.14183 -0.48557 -0.0509496)
(-0.13833 -0.483083 -0.0514193)
(-0.13978 -0.481359 -0.0490112)
(-0.143267 -0.476415 -0.0568749)
(-0.1357 -0.466722 -0.0516113)
(-0.137178 -0.466436 -0.0499245)
(-0.13664 -0.462614 -0.0510619)
(-0.134767 -0.461042 -0.0521918)
(-0.13527 -0.45889 -0.0508863)
(-0.131746 -0.456276 -0.0514804)
(-0.133305 -0.454639 -0.0489215)
(-0.129493 -0.442858 -0.0507816)
(-0.127907 -0.440711 -0.0517447)
(-0.122371 -0.419707 -0.0519212)
(-0.12417 -0.419823 -0.0502312)
(-0.118425 -0.416306 -0.0520407)
(-0.115057 -0.414804 -0.0506804)
(-0.121103 -0.412316 -0.049428)
(-0.115209 -0.399215 -0.0512712)
(-0.116606 -0.398458 -0.0508374)
(-0.117111 -0.393761 -0.0503687)
(-0.112841 -0.395417 -0.0514414)
(-0.116732 -0.38986 -0.0511237)
(-0.114824 -0.387973 -0.0521635)
(-0.115572 -0.393775 -0.051956)
(-0.115399 -0.385897 -0.0507174)
(-0.111597 -0.382167 -0.0512246)
(-0.108857 -0.366724 -0.0519383)
(-0.110427 -0.36664 -0.0502304)
(-0.109903 -0.362558 -0.0512718)
(-0.108016 -0.360962 -0.0523648)
(-0.108476 -0.358851 -0.0510006)
(-0.104942 -0.356406 -0.0514984)
(-0.106434 -0.354663 -0.0490313)
(-0.109931 -0.349767 -0.0568703)
(-0.102402 -0.340048 -0.0516504)
(-0.103874 -0.339776 -0.0499514)
(-0.103344 -0.335952 -0.0511197)
(-0.101466 -0.334374 -0.0522355)
(-0.101938 -0.332231 -0.050916)
(-0.098409 -0.329607 -0.0514532)
(-0.0999157 -0.327983 -0.0489215)
(-0.0960588 -0.316165 -0.0508109)
(-0.0944962 -0.314059 -0.0517466)
(-0.0899993 -0.301845 -0.0508092)
(-0.0895055 -0.289194 -0.0509411)
(-0.0880337 -0.287238 -0.0516342)
(-0.0820448 -0.285956 -0.0492026)
(-0.0823804 -0.266398 -0.0518787)
(-0.0841805 -0.266511 -0.0501511)
(-0.0784159 -0.263012 -0.0520493)
(-0.0750327 -0.261492 -0.0507011)
(-0.0811058 -0.259012 -0.0494306)