/*--------------------------------*- C++ -*----------------------------------*\
  =========                 |
  \\      /  F ield         | OpenFOAM: The Open Source CFD Toolbox
   \\    /   O peration     | Website:  https://openfoam.org
    \\  /    A nd           | Version:  12
     \\/     M anipulation  |
\*---------------------------------------------------------------------------*/
FoamFile
{
    format      ascii;
    class       featureEdgeMesh;
    location    "constant/geometry";
    object      aircraftModel.eMesh;
}
// * * * * * * * * * * * * * * * * * * * * * * * * * * * * * * * * * * * * * //


// points:

316
(
(0.367374 -0.403291 0.00130432)
(0.391452 -0.237798 -0.000182716)
(0.377973 0.366811 0.000734499)
(0.368853 0.401091 0.000814449)
(0.364814 0.403578 -0.000991021)
(0.290041 -0.401645 0.00654508)
(0.286439 -0.397427 0.00796581)
(0.308897 -0.403727 0.0099549)
(0.369906 -0.400602 0.00464787)
(0.282158 -0.350041 0.00657572)
(0.386509 -0.31095 0.00567331)
(0.387209 -0.306775 0.00553374)
(0.387448 -0.308555 0.00724032)
(0.272905 -0.270214 0.00633774)
(0.263455 -0.19911 0.00615788)
(0.256632 -0.186326 0.00839764)
(0.397401 0.232707 0.00878412)
(0.286421 0.399267 0.00658861)
(0.290484 0.402095 0.00584925)
(0.289563 0.402704 0.00793475)
(0.286904 0.39835 0.00867129)
(0.349692 -0.182851 -0.0031899)
(0.344275 -0.179053 -0.00268182)
(0.358503 0.192893 -0.000337841)
(0.347787 -0.18124 -0.0100631)
(0.39692 0.186468 -0.0102243)
(0.383823 -0.308288 0.00158064)
(0.358473 -0.188209 -0.00515362)
(0.402027 -0.188309 -0.000762297)
(0.255321 -0.179553 -0.000202569)
(0.40235 0.189996 0.000335469)
(0.408704 0.184184 -0.00245246)
(0.393421 0.233271 -0.000469339)
(0.386109 -0.298663 0.0065685)
(0.254498 -0.182143 0.00539531)
(0.248528 -0.178445 0.00794189)
(0.268911 0.191903 0.00349513)
(0.264212 0.191445 0.00926801)
(0.39378 0.238255 0.00801269)
(0.615031 -0.174899 -0.0218203)
(0.610818 -0.178672 -0.0198722)
(0.360496 -0.405348 0.00113111)
(0.349345 -0.405122 0.00186135)
(0.365359 -0.400979 -0.00205678)
(0.372176 -0.387508 0.000388191)
(0.370141 -0.397209 0.000298687)
(0.369449 -0.379989 -0.00295943)
(0.36611 -0.392987 -0.00321671)
(0.374305 -0.380471 0.000546887)
(0.376839 -0.374102 0.00126708)
(0.37475 -0.370104 -0.00251396)
(0.379596 -0.356515 0.000598322)
(0.378947 -0.365543 0.000592889)
(0.375506 -0.351998 -0.00288901)
(0.374973 -0.361837 -0.00280552)
(0.380082 -0.346643 0.000524758)
(0.380579 -0.336702 0.000449895)
(0.380855 -0.326619 0.000289003)
(0.3806 -0.317594 -0.000402189)
(0.384936 -0.300387 0.000797928)
(0.386923 -0.293934 0.0012199)
(0.389018 -0.286929 0.000845063)
(0.388633 -0.282013 -0.000559775)
(0.385258 -0.252446 -0.00295714)
(0.384714 -0.260906 -0.00326677)
(0.390885 -0.246637 0.000863031)
(0.39024 -0.25935 0.00127774)
(0.38609 -0.241993 -0.00318772)
(0.394824 -0.232097 0.00125253)
(0.398856 -0.212548 -0.000327585)
(0.399288 -0.220406 0.00186233)
(0.409605 -0.181117 -0.00588863)
(0.395715 0.193624 -0.00447525)
(0.399598 0.197253 -0.000644807)
(0.395755 0.208993 -0.00276074)
(0.395827 0.20257 -0.00268899)
(0.396351 0.214023 -0.00231443)
(0.3937 0.222104 -0.00269568)
(0.397989 0.227558 0.000748127)
(0.399632 0.219027 0.00159639)
(0.391406 0.243517 0.000645676)
(0.390723 0.253562 0.000836453)
(0.390687 0.261964 0.00119129)
(0.389167 0.267519 -0.000589462)
(0.385627 0.278996 -0.00293001)
(0.385592 0.272421 -0.00280059)
(0.386193 0.283873 -0.00225057)
(0.38806 0.297263 0.00051969)
(0.389168 0.288844 0.00166926)
(0.381236 0.323938 0.000564514)
(0.382495 0.313957 -3.77604e-05)
(0.380485 0.333645 0.000759204)
(0.380058 0.343489 0.000662013)
(0.375316 0.348206 -0.00286417)
(0.375364 0.337721 -0.0028929)
(0.379635 0.353331 0.00067171)
(0.379471 0.361139 0.00138763)
(0.371796 0.384071 0.000305246)
(0.373821 0.372846 -0.000686635)
(0.370611 0.394089 0.000748302)
(0.352924 0.400884 -0.00202957)
(0.360645 0.401587 -0.00306621)
(0.350182 0.406798 0.00330073)
(0.358703 0.405437 0.000871345)
(0.288375 -0.396339 0.00510075)
(0.297622 -0.403015 0.00730062)
(0.320122 -0.405956 0.00945941)
(0.306727 -0.39979 0.00403278)
(0.317593 -0.399949 0.00430453)
(0.33022 -0.406785 0.00927573)
(0.340583 -0.40776 0.00872791)
(0.347591 -0.408703 0.00825607)
(0.355029 -0.407249 0.00769687)
(0.364537 -0.404581 0.0063928)
(0.285204 -0.389646 0.00777547)
(0.288078 -0.386674 0.00445291)
(0.371749 -0.392933 0.00598734)
(0.285017 -0.379348 0.00771376)
(0.288151 -0.376152 0.00440328)
(0.37455 -0.3805 0.00658391)
(0.284912 -0.369181 0.00779508)
(0.2881 -0.366096 0.00447023)
(0.378074 -0.373232 0.0056846)
(0.379394 -0.368867 0.00459902)
(0.284172 -0.359304 0.00757993)
(0.379804 -0.361894 0.00551679)
(0.380059 -0.352367 0.00586872)
(0.279308 -0.343438 0.00840751)
(0.277349 -0.336629 0.00846082)
(0.280268 -0.338718 0.00542026)
(0.380478 -0.342239 0.00614101)
(0.276603 -0.329108 0.00774804)
(0.381442 -0.331489 0.00623492)
(0.276323 -0.319008 0.00764083)
(0.279114 -0.315904 0.00471625)
(0.279225 -0.326413 0.0049062)
(0.38322 -0.318649 0.0058886)
(0.276261 -0.308924 0.0076877)
(0.279131 -0.305849 0.00458683)
(0.276126 -0.299046 0.00763126)
(0.279093 -0.295951 0.00448609)
(0.386379 -0.304971 0.00850068)
(0.275773 -0.289496 0.0074332)
(0.278947 -0.286136 0.00437402)
(0.388349 -0.292722 0.00545481)
(0.389451 -0.288789 0.00425981)
(0.275159 -0.279743 0.0072696)
(0.278374 -0.276401 0.00400911)
(0.389318 -0.277589 -6.68269e-05)
(0.390106 -0.28007 0.00413702)
(0.389305 -0.271125 0.000210453)
(0.39095 -0.268781 0.00660211)
(0.269645 -0.263653 0.00836647)
(0.266952 -0.25671 0.0083384)
(0.270137 -0.258744 0.00507461)
(0.39174 -0.260259 0.00842519)
(0.266128 -0.249118 0.00761381)
(0.392172 -0.251086 0.00739811)
(0.266138 -0.239003 0.00766569)
(0.268992 -0.235928 0.00499069)
(0.26893 -0.246406 0.00479508)
(0.393616 -0.238015 0.00762065)
(0.266459 -0.229028 0.00792131)
(0.269267 -0.226001 0.00516545)
(0.397545 -0.230924 0.00546239)
(0.399615 -0.226056 0.00558632)
(0.266585 -0.219278 0.00798438)
(0.269481 -0.2161 0.0050837)
(0.400245 -0.220519 0.00723888)
(0.265826 -0.209118 0.00762946)
(0.269337 -0.205824 0.00436119)
(0.399687 -0.207536 5.15e-05)
(0.400641 -0.21033 0.00492374)
(0.399684 -0.200827 0.000186571)
(0.25958 -0.19238 0.00831372)
(0.260148 -0.188431 0.00369971)
(0.257256 -0.18239 0.00160074)
(0.266708 0.200671 0.0082849)
(0.269551 0.203743 0.00521511)
(0.39985 0.201864 6.06257e-05)
(0.266481 0.210857 0.00797457)
(0.269021 0.214014 0.00504992)
(0.399546 0.208244 0.000198623)
(0.400732 0.210968 0.00661887)
(0.401044 0.19934 0.00525319)
(0.266185 0.220866 0.00774795)
(0.268864 0.223916 0.00488223)
(0.266125 0.230892 0.00770912)
(0.268863 0.233957 0.00489257)
(0.265961 0.241063 0.0077437)
(0.268749 0.244162 0.00484567)
(0.397538 0.232729 0.00401868)
(0.265817 0.250963 0.00743105)
(0.268681 0.253742 0.00459822)
(0.392303 0.248667 0.00706623)
(0.266136 0.258157 0.00655609)
(0.39178 0.258531 0.00669514)
(0.268748 0.264761 0.00671526)
(0.273021 0.271635 0.00892756)
(0.389439 0.272267 -8.68012e-05)
(0.275338 0.281207 0.00777163)
(0.278696 0.284151 0.0043971)
(0.27561 0.271574 0.00460633)
(0.389047 0.278428 0.000210879)
(0.390188 0.280883 0.00644694)
(0.390782 0.269802 0.00484422)
(0.276075 0.291071 0.00744671)
(0.279067 0.294116 0.00438852)
(0.389707 0.289488 0.00726251)
(0.276148 0.300877 0.0074038)
(0.278995 0.303884 0.00448914)
(0.388324 0.302479 0.00178666)
(0.389171 0.299267 0.00526707)
(0.276241 0.31087 0.00737511)
(0.279054 0.313926 0.00463263)
(0.387223 0.309164 0.00368176)
(0.387851 0.307919 0.00769011)
(0.276339 0.321027 0.00740121)
(0.279165 0.32412 0.00477686)
(0.384438 0.319275 0.00504974)
(0.386038 0.314488 0.00809976)
(0.276389 0.330876 0.00727879)
(0.382259 0.32888 0.00620631)
(0.276668 0.337971 0.00672131)
(0.381161 0.338869 0.00630147)
(0.278739 0.344498 0.00695813)
(0.282267 0.351545 0.00887059)
(0.380643 0.348442 0.00585017)
(0.284477 0.361091 0.00795998)
(0.287819 0.363852 0.00447827)
(0.285191 0.35129 0.00488757)
(0.380019 0.357441 0.00569632)
(0.285151 0.371209 0.00758047)
(0.2882 0.374318 0.00413913)
(0.377506 0.372305 0.00338958)
(0.285142 0.381709 0.00729329)
(0.288344 0.385231 0.00398133)
(0.374942 0.379421 0.00492321)
(0.28524 0.391954 0.00684394)
(0.372475 0.389323 0.0063184)
(0.297172 0.401241 0.00480822)
(0.307155 0.400855 0.00435335)
(0.370098 0.398751 0.00586909)
(0.296785 0.404019 0.00827861)
(0.307119 0.405058 0.00891363)
(0.317825 0.406445 0.00947648)
(0.328533 0.406937 0.00920685)
(0.340558 0.406704 0.00669221)
(0.348771 0.408673 0.00813267)
(0.357105 0.406579 0.00913714)
(0.300108 -0.400101 0.0114658)
(0.291524 -0.399138 0.00961369)
(0.306115 -0.400479 0.0133457)
(0.312174 -0.398593 0.0161748)
(0.316541 -0.405197 0.0144833)
(0.324504 -0.406384 0.0153603)
(0.334727 -0.406458 0.0155626)
(0.3475 -0.405443 0.0148754)
(0.384402 -0.309631 0.00997639)
(0.276825 -0.282069 0.0107903)
(0.27732 -0.269439 0.0121669)
(0.268725 -0.210486 0.011495)
(0.265658 -0.197932 0.0114278)
(0.398148 0.2241 0.0120705)
(0.398026 0.22972 0.0107892)
(0.287778 0.391281 0.00993157)
(0.314173 0.401481 0.0171678)
(0.305752 0.400502 0.0135819)
(0.317039 0.404884 0.0153552)
(0.327388 0.406629 0.0156001)
(0.33818 0.406838 0.0149372)
(0.34809 0.407332 0.0131934)
(-0.325747 -0.0258662 0.0580741)
(-0.330553 -0.019999 0.0602012)
(-0.332901 -0.0150264 0.0605039)
(-0.333808 -0.00814747 0.0598117)
(-0.333502 0.00836438 0.0635344)
(-0.331437 0.0140275 0.0655237)
(-0.327034 0.020831 0.0664253)
(0.393674 -0.189564 -0.0064892)
(0.346085 -0.179442 -0.00487366)
(0.354181 -0.187448 -0.00196324)
(0.267074 -0.179425 -0.00248706)
(0.277955 -0.17926 -0.00249314)
(0.288253 -0.179124 -0.00216056)
(0.298294 -0.179012 -0.00205784)
(0.308298 -0.178988 -0.00210816)
(0.318393 -0.178972 -0.0021685)
(0.328496 -0.178825 -0.00218341)
(0.33782 -0.178687 -0.00224209)
(0.263776 0.184999 -0.00350816)
(0.273911 0.185832 -0.00382408)
(0.284247 0.185667 -0.00409604)
(0.294281 0.185619 -0.00396688)
(0.304224 0.185637 -0.00390231)
(0.31418 0.185616 -0.00397413)
(0.324155 0.185572 -0.00402587)
(0.334268 0.185692 -0.00399936)
(0.36234 0.191675 -0.00221938)
(0.368844 0.192427 -0.0055827)
(0.380679 0.19193 -0.00775286)
(0.280529 0.191174 0.00135202)
(0.290965 0.191025 0.00123111)
(0.310921 0.191102 0.00123428)
(0.320895 0.191058 0.00103023)
(0.330976 0.191088 0.000971755)
(0.351257 0.192085 0.00035784)
(0.402606 0.189227 0.00967492)
(0.257598 -0.181359 0.0128705)
(0.405996 -0.181976 0.00566697)
(0.402903 -0.180603 0.0155696)
(0.25665 -0.176495 0.0192611)
(0.257627 0.183674 0.0129481)
(0.25798 0.18525 0.00365913)
(0.404177 0.183308 0.0146392)
(0.396567 0.181849 0.0223593)
)


// edges:

280
(
(39 40)
(41 42)
(43 0)
(0 41)
(44 45)
(46 47)
(48 44)
(49 48)
(46 50)
(51 52)
(53 54)
(55 51)
(56 55)
(57 56)
(58 57)
(26 58)
(59 26)
(60 59)
(61 60)
(62 61)
(63 64)
(65 66)
(67 63)
(1 65)
(68 1)
(69 70)
(24 27)
(71 28)
(72 25)
(30 31)
(73 30)
(74 75)
(76 74)
(77 76)
(78 79)
(80 32)
(81 80)
(82 81)
(83 82)
(84 85)
(86 84)
(87 88)
(89 90)
(91 89)
(92 91)
(93 94)
(95 92)
(96 95)
(2 96)
(97 98)
(99 97)
(100 101)
(3 99)
(102 103)
(103 4)
(4 3)
(104 5)
(5 6)
(105 5)
(7 105)
(106 7)
(107 108)
(109 106)
(110 109)
(111 110)
(112 111)
(113 112)
(8 0)
(6 114)
(115 104)
(116 8)
(114 117)
(118 115)
(119 116)
(117 120)
(121 118)
(122 119)
(123 122)
(120 124)
(125 123)
(124 9)
(126 125)
(127 128)
(129 9)
(9 127)
(130 126)
(128 131)
(132 130)
(131 133)
(134 135)
(136 132)
(133 137)
(138 134)
(10 136)
(11 12)
(12 10)
(137 139)
(140 138)
(11 33)
(141 12)
(139 142)
(143 140)
(144 33)
(145 144)
(142 146)
(147 143)
(148 62)
(149 145)
(146 13)
(150 148)
(151 149)
(152 153)
(154 13)
(13 152)
(66 150)
(155 151)
(153 156)
(157 155)
(156 158)
(159 160)
(161 157)
(158 162)
(163 159)
(164 161)
(165 164)
(162 166)
(167 163)
(168 165)
(166 169)
(170 167)
(171 69)
(172 168)
(169 14)
(173 171)
(174 15)
(175 14)
(14 174)
(28 173)
(15 34)
(176 175)
(29 176)
(34 35)
(37 177)
(178 36)
(179 73)
(177 180)
(181 178)
(182 179)
(183 184)
(180 185)
(186 181)
(79 182)
(185 187)
(188 186)
(187 189)
(190 188)
(191 38)
(38 16)
(189 192)
(193 190)
(194 38)
(192 195)
(196 194)
(195 197)
(197 198)
(199 83)
(198 200)
(201 202)
(203 199)
(204 205)
(200 206)
(207 201)
(88 203)
(208 204)
(206 209)
(210 207)
(211 87)
(212 208)
(209 213)
(214 210)
(215 211)
(216 212)
(213 217)
(218 214)
(215 219)
(220 216)
(217 221)
(222 219)
(221 223)
(224 222)
(223 225)
(225 226)
(227 224)
(226 228)
(229 230)
(231 227)
(228 232)
(233 229)
(234 2)
(232 235)
(236 233)
(234 237)
(235 238)
(239 237)
(238 17)
(17 18)
(18 240)
(240 241)
(3 242)
(17 19)
(19 243)
(243 244)
(244 245)
(245 246)
(246 247)
(247 248)
(248 249)
(250 251)
(252 250)
(253 252)
(7 254)
(255 254)
(256 255)
(257 256)
(12 258)
(259 260)
(261 262)
(263 264)
(264 16)
(265 20)
(266 267)
(20 19)
(268 269)
(269 270)
(270 271)
(272 273)
(274 275)
(276 277)
(277 278)
(279 28)
(24 280)
(27 21)
(281 21)
(282 29)
(283 282)
(284 283)
(285 284)
(286 285)
(287 286)
(288 287)
(289 288)
(280 22)
(22 289)
(21 22)
(290 291)
(291 292)
(292 293)
(293 294)
(294 295)
(295 296)
(296 297)
(298 299)
(299 300)
(31 25)
(26 33)
(35 29)
(37 36)
(36 301)
(301 302)
(303 304)
(304 305)
(306 23)
(23 298)
(30 307)
(32 38)
(308 34)
(309 310)
(311 35)
(312 313)
(314 315)
)

// * * * * * * * * * * * * * * * * * * * * * * * * * * * * * * * * * * * * * //


// ************************************************************************* //
