/*--------------------------------*- C++ -*----------------------------------*\
  =========                 |
  \\      /  F ield         | OpenFOAM: The Open Source CFD Toolbox
   \\    /   O peration     | Website:  https://openfoam.org
    \\  /    A nd           | Version:  12
     \\/     M anipulation  |
\*---------------------------------------------------------------------------*/
FoamFile
{
    format      ascii;
    class       polyBoundaryMesh;
    location    "0/polyMesh";
    object      boundary;
}
// * * * * * * * * * * * * * * * * * * * * * * * * * * * * * * * * * * * * * //

7
(
    front
    {
        type            patch;
        nFaces          205;
        startFace       192519;
    }
    back
    {
        type            patch;
        nFaces          205;
        startFace       192724;
    }
    inlet
    {
        type            patch;
        nFaces          64;
        startFace       192929;
    }
    outlet
    {
        type            patch;
        nFaces          88;
        startFace       192993;
    }
    lower
    {
        type            patch;
        nFaces          220;
        startFace       193081;
    }
    upper
    {
        type            patch;
        nFaces          202;
        startFace       193301;
    }
    aircraftModel
    {
        type            wall;
        inGroups        List<word> 1(wall);
        nFaces          11386;
        startFace       193503;
    }
)

// ************************************************************************* //
