/*--------------------------------*- C++ -*----------------------------------*\
  =========                 |
  \\      /  F ield         | OpenFOAM: The Open Source CFD Toolbox
   \\    /   O peration     | Website:  https://openfoam.org
    \\  /    A nd           | Version:  12
     \\/     M anipulation  |
\*---------------------------------------------------------------------------*/
FoamFile
{
    format      ascii;
    class       featureEdgeMesh;
    location    "constant/geometry";
    object      aircraftModel.eMesh;
}
// * * * * * * * * * * * * * * * * * * * * * * * * * * * * * * * * * * * * * //


// points:

1098
(
(0.01 0.11 -0.077559)
(0.1 -0.37 -0.046357)
(0.1 -0.343559 -0.04)
(0.1 0.35 -0.046306)
(0.1 0.38 -0.043419)
(0.48769 -0.37 -0.04)
(0.487634 0.35 -0.04)
(0.484801 0.38 -0.04)
(0.903143 -0.07 -0.04)
(0.94 0.05 -0.055957)
(0.97 -0.01 -0.063684)
(0.97 -0.021946 -0.04)
(0.97 0.02 -0.057956)
(-0.74 0.38 -0.01)
(-0.74 0.38 -0.01)
(-0.74 0.38 -0.01)
(-0.74 0.38 -0.01)
(-0.71 -0.37 -0.03792)
(-0.735425 -0.37 -0.01)
(-0.71 0.35 -0.036634)
(-0.71 0.38 -0.033039)
(-0.44 -0.34 -0.0307)
(-0.44 0.32 -0.016088)
(-0.066895 -0.73 -0.01)
(-0.05 -0.682787 -0.01)
(-0.05 0.681928 -0.01)
(-0.060546 0.71 -0.01)
(-0.05 0.736821 -0.01)
(-0.02 -0.621183 -0.01)
(-0.02 0.133751 -0.01)
(0.01 0.559045 -0.01)
(0.04 0.497865 -0.01)
(0.19 -0.73 -0.01659)
(0.19 -0.734713 -0.01)
(0.19 0.71 -0.026467)
(0.19 0.738653 -0.01)
(0.22 -0.7 -0.015883)
(0.25 -0.64 -0.0268)
(0.31 -0.58 -0.018889)
(0.305735 0.59 -0.01)
(0.34 -0.52 -0.030135)
(0.37 -0.49 -0.027759)
(0.4 -0.46 -0.022072)
(0.399687 0.47 -0.01)
(0.43 0.41 -0.029733)
(0.46 -0.390627 -0.01)
(0.49 -0.34 -0.037359)
(0.7 -0.13 -0.039375)
(0.73 0.130769 -0.01)
(-0.741335 0.38 0.02)
(-0.730825 -0.37 0.02)
(-0.71 0.331703 0.02)
(-0.730343 0.35 0.02)
(-0.08 -0.105128 0.02)
(-0.05 0.122855 0.02)
(0.024408 -0.73 0.02)
(0.04 0.729499 0.02)
(0.157162 -0.73 0.02)
(0.19 -0.73 -0.002797)
(0.489266 -0.37 0.02)
(0.489261 0.35 0.02)
(0.489109 0.38 0.02)
(0.94 0.05 -0.008359)
(0.97 0.02 -0.006548)
(-0.71 -0.37 0.03792)
(-0.138756 0.08 0.05)
(0.01 -0.13 0.039681)
(0.07 0.35 0.025436)
(0.1 -0.34 0.030446)
(0.1 0.35 0.043388)
(0.1 0.38 0.033998)
(0.46 -0.37 0.048593)
(0.46 0.35 0.048373)
(0.46 0.38 0.043419)
(-0.26 -0.01 0.064858)
(-0.26 0.02 0.068077)
(-0.23 -0.04 0.061825)
(-0.23 -0.044323 0.08)
(-0.26 -0.010087 0.11)
(-0.26 0.02 0.099801)
(-0.23 -0.04 0.091874)
(-0.23 0.02 0.109695)
(-0.2 0.05 0.088248)
(-0.26 -0.01 0.110164)
(-0.74 0.378045 0.2)
(-0.741335 0.38 0.2)
(-0.74 0.381301 0.2)
(-0.733855 -0.34 0.2)
(-0.44 -0.357302 0.2)
(-0.44 -0.33133 0.2)
(-0.44 0.364067 0.2)
(-0.44 0.390394 0.2)
(-0.74 0.38 0.201832)
(-0.44 -0.34 0.209072)
(-0.44 0.38 0.21)
(-0.41 0.34238 -0.01)
(-0.23 0.023924 0.05)
(-0.042322 -0.1 -0.04)
(0.43 0.386695 -0.04)
(0.46 -0.342481 -0.04)
(0.577783 -0.13 -0.04)
(0.7 -0.129375 -0.04)
(-0.737905 -0.34 -0.01)
(-0.71 -0.31 -0.012023)
(-0.720701 -0.31 -0.01)
(-0.720701 0.32 -0.01)
(-0.735367 0.35 -0.01)
(-0.44 0.35 -0.036281)
(-0.41 -0.37 -0.027425)
(-0.41 -0.352575 -0.01)
(-0.436505 0.32 -0.01)
(-0.41 0.35 -0.026912)
(0.01 0.736974 -0.01)
(0.04 0.381902 -0.01)
(0.07 -0.37 -0.026347)
(0.07 -0.354552 -0.01)
(0.07 0.35 -0.025244)
(0.07 0.38 -0.013615)
(0.07 0.387912 -0.01)
(0.089867 -0.4 -0.01)
(0.1 -0.330687 -0.01)
(0.1 0.41 -0.019017)
(0.08491 0.41 -0.01)
(0.13 -0.34 -0.039225)
(0.120599 -0.31 -0.01)
(0.118681 0.32 -0.01)
(0.13 0.738522 -0.01)
(0.150309 -0.16 -0.01)
(0.152985 0.14 -0.01)
(0.16 0.738703 -0.01)
(0.192839 -0.73 -0.01)
(0.22 -0.67 -0.027586)
(0.22 -0.64 -0.029585)
(0.221913 -0.7 -0.01)
(0.242739 -0.67 -0.01)
(0.25 -0.61 -0.030495)
(0.263598 -0.64 -0.01)
(0.288272 -0.61 -0.01)
(0.31 -0.55 -0.030937)
(0.31 -0.52 -0.033223)
(0.313256 -0.58 -0.01)
(0.337125 -0.55 -0.01)
(0.34 -0.49 -0.034021)
(0.357155 -0.52 -0.01)
(0.37 -0.46 -0.034418)
(0.380477 -0.49 -0.01)
(0.4 -0.43 -0.034284)
(0.4 -0.4 -0.036683)
(0.404775 -0.46 -0.01)
(0.43 -0.43 -0.011039)
(0.46 -0.34 -0.039225)
(0.489307 -0.37 -0.01)
(0.49 -0.367541 -0.01)
(0.49 0.35 -0.019765)
(0.505758 -0.31 -0.01)
(0.490323 0.35 -0.01)
(0.58 0.14 -0.029757)
(0.580233 -0.16 -0.01)
(0.61 -0.13 -0.039681)
(0.596152 0.14 -0.01)
(-0.74 0.374595 0.02)
(-0.736195 -0.34 0.02)
(-0.71 0.32 -0.003932)
(-0.44 -0.31 0.008263)
(-0.44 0.32 0.008263)
(-0.41 -0.359505 0.02)
(-0.421666 0.38 0.02)
(-0.059892 0.11 0.02)
(0.07 -0.363663 0.02)
(0.094433 -0.34 0.02)
(0.16 0.725062 0.02)
(0.19 0.71 0.012185)
(0.49 -0.31 0.010779)
(0.49 0.32 0.006759)
(0.49 0.35 -0.000235)
(0.58 -0.16 -0.009482)
(0.61 -0.134994 0.02)
(-0.71 -0.349994 0.05)
(-0.71 0.367672 0.05)
(-0.461628 -0.37 0.05)
(-0.41 -0.37 0.030495)
(-0.428761 -0.34 0.05)
(-0.41 0.35 0.029232)
(-0.425995 0.38 0.05)
(-0.05 0.106862 0.05)
(0.01 -0.119794 0.05)
(0.07 -0.37 0.026347)
(0.1 -0.37 0.044834)
(0.46 0.32 0.024562)
(-0.26 -0.013839 0.08)
(-0.23 -0.013719 0.11)
(-0.225374 0.02 0.11)
(-0.02 -0.01 -0.100787)
(-0.02 -0.011814 -0.1)
(-0.02 0.000466 -0.1)
(0.01 -0.01 -0.119884)
(0.01 -0.04 -0.11622)
(0.01 0.02 -0.119239)
(0.01 0.05 -0.113607)
(0.01 0.08 -0.100689)
(-0.02 0.08 -0.084599)
(0.008069 0.08 -0.1)
(-0.002909 0.11 -0.07)
(0.04 0.11 -0.077559)
(0.07 0.11 -0.077559)
(0.61 0.11 -0.077559)
(0.64 0.11 -0.077559)
(0.67 0.11 -0.077559)
(0.7 0.11 -0.077559)
(0.82 -0.07 -0.084052)
(0.85 -0.07 -0.076618)
(0.865024 -0.07 -0.07)
(0.88 0.05 -0.083181)
(0.91 0.05 -0.073584)
(0.91 -0.04 -0.080105)
(0.935113 -0.04 -0.07)
(0.915104 0.05 -0.07)
(-0.080455 -0.07 -0.04)
(-0.08 -0.07 -0.040407)
(-0.05 -0.07 -0.062818)
(-0.02 -0.121259 -0.04)
(-0.02 0.11 -0.053946)
(0.091498 -0.37 -0.04)
(0.091963 0.35 -0.04)
(0.1 0.384048 -0.04)
(0.13 -0.37 -0.048593)
(0.13 0.35 -0.048373)
(0.13 0.38 -0.043419)
(0.16 -0.37 -0.048593)
(0.16 0.35 -0.048373)
(0.16 0.38 -0.043419)
(0.19 -0.37 -0.048593)
(0.19 0.35 -0.048373)
(0.19 0.38 -0.043419)
(0.22 -0.37 -0.048593)
(0.22 0.35 -0.048373)
(0.22 0.38 -0.043419)
(0.25 -0.37 -0.048593)
(0.25 0.35 -0.048373)
(0.28 -0.37 -0.048593)
(0.28 0.35 -0.048373)
(0.31 -0.37 -0.048593)
(0.31 0.35 -0.048373)
(0.34 -0.37 -0.048593)
(0.34 0.35 -0.048373)
(0.37 -0.37 -0.048593)
(0.37 0.35 -0.048373)
(0.4 -0.37 -0.048593)
(0.4 0.35 -0.048373)
(0.43 -0.37 -0.048593)
(0.43 0.35 -0.048373)
(0.46 -0.37 -0.048593)
(0.46 0.38 -0.043419)
(0.46 0.382134 -0.04)
(0.552002 -0.16 -0.04)
(0.88 -0.07 -0.064124)
(0.91 -0.066012 -0.04)
(0.88 0.078289 -0.04)
(0.91 0.058255 -0.04)
(0.94 -0.04 -0.068198)
(0.94 0.054357 -0.04)
(0.962855 -0.01 -0.07)
(0.957025 -0.04 -0.04)
(0.955247 0.02 -0.07)
(0.972856 0.02 -0.04)
(-0.71 -0.34 -0.0307)
(-0.720701 -0.28 -0.01)
(-0.720701 -0.25 -0.01)
(-0.720701 -0.22 -0.01)
(-0.720701 -0.19 -0.01)
(-0.720701 -0.16 -0.01)
(-0.720701 -0.13 -0.01)
(-0.720701 -0.1 -0.01)
(-0.720701 -0.07 -0.01)
(-0.720701 -0.04 -0.01)
(-0.720701 -0.01 -0.01)
(-0.720701 0.02 -0.01)
(-0.720701 0.05 -0.01)
(-0.720701 0.08 -0.01)
(-0.720701 0.11 -0.01)
(-0.720701 0.14 -0.01)
(-0.720701 0.17 -0.01)
(-0.720701 0.2 -0.01)
(-0.720701 0.23 -0.01)
(-0.720701 0.26 -0.01)
(-0.720701 0.29 -0.01)
(-0.71 0.392866 -0.01)
(-0.68 -0.37 -0.03792)
(-0.68 0.35 -0.036634)
(-0.68 0.38 -0.033039)
(-0.68 0.394202 -0.01)
(-0.65 -0.37 -0.03792)
(-0.65 0.35 -0.036634)
(-0.65 0.38 -0.033039)
(-0.65 0.395663 -0.01)
(-0.62 -0.37 -0.03792)
(-0.62 0.35 -0.036634)
(-0.62 0.38 -0.033039)
(-0.62 0.397193 -0.01)
(-0.59 -0.37 -0.03792)
(-0.59 -0.382858 -0.01)
(-0.62 -0.382242 -0.01)
(-0.59 0.38 -0.033039)
(-0.59 0.398718 -0.01)
(-0.56 -0.37 -0.03792)
(-0.56 -0.383358 -0.01)
(-0.56 0.38 -0.033039)
(-0.56 0.400042 -0.01)
(-0.53 -0.37 -0.03792)
(-0.53 -0.383646 -0.01)
(-0.53 0.38 -0.033039)
(-0.53 0.400841 -0.01)
(-0.5 -0.37 -0.03792)
(-0.5 -0.383569 -0.01)
(-0.5 0.38 -0.033039)
(-0.5 0.400625 -0.01)
(-0.47 -0.37 -0.03792)
(-0.47 -0.382958 -0.01)
(-0.47 0.38 -0.033039)
(-0.47 0.398976 -0.01)
(-0.44 -0.37 -0.037588)
(-0.44 -0.31 -0.016088)
(-0.44 -0.28 -0.016088)
(-0.44 -0.25 -0.016088)
(-0.44 -0.22 -0.016088)
(-0.44 -0.19 -0.016088)
(-0.44 -0.16 -0.016088)
(-0.44 -0.13 -0.016088)
(-0.44 -0.1 -0.016088)
(-0.44 -0.07 -0.016088)
(-0.44 -0.04 -0.016088)
(-0.44 -0.01 -0.016088)
(-0.44 0.02 -0.016088)
(-0.44 0.05 -0.016088)
(-0.44 0.08 -0.016088)
(-0.44 0.11 -0.016088)
(-0.44 0.14 -0.016088)
(-0.44 0.17 -0.016088)
(-0.44 0.2 -0.016088)
(-0.44 0.23 -0.016088)
(-0.44 0.26 -0.016088)
(-0.44 0.29 -0.016088)
(-0.47 0.35 -0.036634)
(-0.44 0.38 -0.033039)
(-0.44 0.394341 -0.01)
(-0.41 -0.378024 -0.01)
(-0.44 -0.38037 -0.01)
(-0.42318 -0.34 -0.01)
(-0.436505 -0.31 -0.01)
(-0.436505 -0.28 -0.01)
(-0.436505 -0.25 -0.01)
(-0.436505 -0.22 -0.01)
(-0.436505 -0.19 -0.01)
(-0.436505 -0.16 -0.01)
(-0.436505 -0.13 -0.01)
(-0.436505 -0.1 -0.01)
(-0.436505 -0.07 -0.01)
(-0.436505 -0.04 -0.01)
(-0.436505 -0.01 -0.01)
(-0.436505 0.02 -0.01)
(-0.436505 0.05 -0.01)
(-0.436505 0.08 -0.01)
(-0.436505 0.11 -0.01)
(-0.436505 0.14 -0.01)
(-0.436505 0.17 -0.01)
(-0.436505 0.2 -0.01)
(-0.436505 0.23 -0.01)
(-0.436505 0.26 -0.01)
(-0.436505 0.29 -0.01)
(-0.41 0.38 -0.016287)
(-0.38 -0.37 -0.026347)
(-0.38 -0.354552 -0.01)
(-0.38 0.35 -0.025244)
(-0.38 0.38 -0.013127)
(-0.35 -0.37 -0.026347)
(-0.35 -0.377206 -0.01)
(-0.38 -0.375048 -0.01)
(-0.35 -0.354552 -0.01)
(-0.35 0.35 -0.025244)
(-0.35 0.343169 -0.01)
(-0.38 0.345239 -0.01)
(-0.35 0.38 -0.013127)
(-0.38 0.381118 -0.01)
(-0.35 0.381711 -0.01)
(-0.32 -0.37 -0.026347)
(-0.32 -0.354552 -0.01)
(-0.32 0.35 -0.025244)
(-0.32 0.38 -0.013127)
(-0.29 -0.37 -0.026347)
(-0.29 -0.354552 -0.01)
(-0.29 0.35 -0.025244)
(-0.29 0.38 -0.013127)
(-0.26 -0.37 -0.026347)
(-0.26 -0.354552 -0.01)
(-0.26 0.35 -0.025244)
(-0.26 0.38 -0.013127)
(-0.23 -0.37 -0.026347)
(-0.23 -0.354552 -0.01)
(-0.23 0.35 -0.025244)
(-0.23 0.38 -0.013127)
(-0.2 -0.37 -0.026347)
(-0.2 -0.354552 -0.01)
(-0.2 0.35 -0.025244)
(-0.2 0.38 -0.013127)
(-0.17 -0.37 -0.026347)
(-0.17 -0.354552 -0.01)
(-0.17 0.35 -0.025244)
(-0.17 0.38 -0.013127)
(-0.14 -0.37 -0.026347)
(-0.14 -0.354552 -0.01)
(-0.14 0.35 -0.025244)
(-0.14 0.38 -0.013127)
(-0.11 -0.37 -0.026347)
(-0.11 -0.354552 -0.01)
(-0.116132 -0.07 -0.01)
(-0.11 -0.07 -0.016584)
(-0.11 0.35 -0.025244)
(-0.11 0.38 -0.013127)
(-0.08 -0.37 -0.026347)
(-0.08 -0.354552 -0.01)
(-0.08 0.35 -0.025244)
(-0.08 0.38 -0.013127)
(-0.05 -0.73 -0.015487)
(-0.05 -0.738733 -0.01)
(-0.056147 -0.7 -0.01)
(-0.05 -0.7 -0.014939)
(-0.05 -0.37 -0.026347)
(-0.05 -0.354552 -0.01)
(-0.05 0.35 -0.025244)
(-0.05 0.38 -0.013127)
(-0.05 0.71 -0.016696)
(-0.02 -0.73 -0.015409)
(-0.02 -0.738733 -0.01)
(-0.04088 -0.67 -0.01)
(-0.026993 -0.64 -0.01)
(-0.02 -0.64 -0.015365)
(-0.02 -0.37 -0.026347)
(-0.02 -0.354552 -0.01)
(-0.02 0.115298 -0.04)
(-0.02 0.35 -0.025244)
(-0.02 0.38 -0.013127)
(-0.02 0.6203 -0.01)
(-0.03156 0.65 -0.01)
(-0.02 0.68 -0.017469)
(-0.02 0.65 -0.017106)
(-0.048249 0.68 -0.01)
(-0.02 0.736875 -0.01)
(0.01 -0.738733 -0.01)
(-0.012717 -0.61 -0.01)
(0.002183 -0.58 -0.01)
(0.01 -0.559659 -0.01)
(0.01 -0.37 -0.026347)
(0.01 -0.354552 -0.01)
(0.01 -0.13 -0.039529)
(0.01 0.129656 -0.01)
(0.01 0.35 -0.025244)
(0.01 0.38 -0.013127)
(0.01 0.56 -0.010414)
(0.00966 0.56 -0.01)
(0.01 0.59 -0.01754)
(-0.002518 0.59 -0.01)
(-0.019757 0.62 -0.01)
(0.04 -0.738733 -0.01)
(0.015761 -0.55 -0.01)
(0.031384 -0.52 -0.01)
(0.04 -0.498207 -0.01)
(0.04 -0.37 -0.026347)
(0.04 -0.376843 -0.01)
(0.01 -0.374766 -0.01)
(0.04 -0.354552 -0.01)
(0.04 -0.13 -0.039681)
(0.04 0.35 -0.025244)
(0.04 0.38 -0.013127)
(0.01 0.38063 -0.01)
(0.04 0.5 -0.01092)
(0.039214 0.5 -0.01)
(0.04 0.53 -0.018)
(0.026578 0.53 -0.01)
(0.04 0.737353 -0.01)
(0.07 -0.738733 -0.01)
(0.044577 -0.49 -0.01)
(0.060612 -0.46 -0.01)
(0.07 -0.436818 -0.01)
(0.07 -0.386916 -0.01)
(0.07 0.342483 -0.01)
(0.04 0.346682 -0.01)
(0.07 0.436694 -0.01)
(0.068747 0.44 -0.01)
(0.055722 0.47 -0.01)
(0.07 0.737814 -0.01)
(0.1 -0.738733 -0.01)
(0.073772 -0.43 -0.01)
(0.1 -0.34 -0.036441)
(0.1 -0.142982 -0.01)
(0.07 -0.14117 -0.01)
(0.1 0.33293 -0.01)
(0.1 0.738224 -0.01)
(0.13 -0.738733 -0.01)
(0.13 -0.31 -0.017369)
(0.12591 -0.28 -0.01)
(0.13 -0.253881 -0.01)
(0.13 -0.152216 -0.01)
(0.13 0.253916 -0.01)
(0.12908 0.26 -0.01)
(0.124214 0.29 -0.01)
(0.16 -0.738733 -0.01)
(0.130906 -0.25 -0.01)
(0.137818 -0.22 -0.01)
(0.144314 -0.19 -0.01)
(0.148371 0.17 -0.01)
(0.142201 0.2 -0.01)
(0.135555 0.23 -0.01)
(0.19 -0.7 -0.027556)
(0.22 -0.702846 -0.01)
(0.22 0.68 -0.025688)
(0.211137 0.71 -0.01)
(0.22 0.700626 -0.01)
(0.25 -0.66231 -0.01)
(0.25 0.65 -0.023782)
(0.232386 0.68 -0.01)
(0.25 0.661236 -0.01)
(0.28 -0.61 -0.024938)
(0.28 -0.622512 -0.01)
(0.28 -0.58 -0.030996)
(0.28 0.62 -0.017875)
(0.257358 0.65 -0.01)
(0.28 0.624123 -0.01)
(0.31 -0.584804 -0.01)
(0.28 0.59 -0.02982)
(0.31 0.56 -0.029024)
(0.31 0.585474 -0.01)
(0.282787 0.62 -0.01)
(0.34 -0.546947 -0.01)
(0.34 0.53 -0.026828)
(0.325988 0.56 -0.01)
(0.34 0.544624 -0.01)
(0.37 -0.505634 -0.01)
(0.37 0.5 -0.020983)
(0.349766 0.53 -0.01)
(0.37 0.50624 -0.01)
(0.4 -0.466992 -0.01)
(0.37 0.47 -0.033168)
(0.4 0.44 -0.032358)
(0.4 0.469667 -0.01)
(0.374251 0.5 -0.01)
(0.43 -0.430379 -0.01)
(0.43 -0.4 -0.033469)
(0.43 -0.385294 -0.04)
(0.419411 0.44 -0.01)
(0.43 0.427677 -0.01)
(0.430331 -0.43 -0.01)
(0.450495 -0.4 -0.01)
(0.441924 0.41 -0.01)
(0.49 -0.31 -0.033459)
(0.49 -0.28 -0.038574)
(0.46 0.32 -0.038805)
(0.49 0.32 -0.030374)
(0.489307 0.38 -0.01)
(0.496056 -0.34 -0.01)
(0.52 -0.285881 -0.01)
(0.52 -0.25 -0.03388)
(0.52 -0.28 -0.017783)
(0.52 -0.22 -0.039787)
(0.49 0.29 -0.037387)
(0.52 0.26 -0.030304)
(0.517991 0.29 -0.01)
(0.52 0.28653 -0.01)
(0.500889 0.32 -0.01)
(0.52218 -0.28 -0.01)
(0.534273 -0.25 -0.01)
(0.55 -0.223204 -0.01)
(0.55 -0.19 -0.034272)
(0.55 -0.22 -0.014998)
(0.52 0.23 -0.038372)
(0.55 0.2 -0.030109)
(0.545845 0.23 -0.01)
(0.55 0.222791 -0.01)
(0.529628 0.26 -0.01)
(0.551205 -0.22 -0.01)
(0.56285 -0.19 -0.01)
(0.58 -0.160612 -0.01)
(0.58 -0.13 -0.039681)
(0.58 -0.16 -0.011146)
(0.55 0.17 -0.03941)
(0.573842 0.17 -0.01)
(0.58 0.159269 -0.01)
(0.558402 0.2 -0.01)
(0.718192 -0.13 -0.01)
(0.76 0.124156 -0.01)
(0.79 0.110804 -0.01)
(0.790729 0.11 -0.01)
(0.94 0.050515 -0.01)
(0.97 -0.015081 -0.01)
(0.971239 0.02 -0.01)
(-0.44 -0.28 0.008263)
(-0.44 -0.25 0.008263)
(-0.44 -0.22 0.008263)
(-0.44 -0.19 0.008263)
(-0.44 -0.16 0.008263)
(-0.44 -0.13 0.008263)
(-0.44 -0.1 0.008263)
(-0.44 -0.07 0.008263)
(-0.44 -0.04 0.008263)
(-0.44 -0.01 0.008263)
(-0.44 0.02 0.008263)
(-0.44 0.05 0.008263)
(-0.44 0.08 0.008263)
(-0.44 0.11 0.008263)
(-0.44 0.14 0.008263)
(-0.44 0.17 0.008263)
(-0.44 0.2 0.008263)
(-0.44 0.23 0.008263)
(-0.44 0.26 0.008263)
(-0.44 0.29 0.008263)
(-0.38 -0.364002 0.02)
(-0.35 0.38 -0.000618)
(-0.38 0.38 -0.000618)
(-0.29 0.38 -0.000618)
(-0.32 0.38 -0.000618)
(-0.26 0.38 -0.000618)
(-0.23 0.38 -0.000618)
(-0.2 0.38 -0.000618)
(-0.18563 -0.04 0.02)
(-0.17 -0.04 0.007206)
(-0.2 0.02 0.019379)
(-0.17 0.02 -0.000766)
(-0.175254 0.05 0.02)
(-0.17 0.05 0.014178)
(-0.17 0.38 -0.000618)
(-0.14 0.05 -0.008776)
(-0.14 0.38 -0.000618)
(-0.14 -0.07 0.012322)
(-0.11 0.38 -0.000618)
(-0.08 0.38 -0.000618)
(-0.05 -0.73 -0.00372)
(-0.05 -0.118087 0.02)
(-0.05 0.38 -0.000618)
(-0.02 -0.73 0.000177)
(-0.02 0.38 -0.000618)
(0.01 -0.73 0.010046)
(0.01 0.38 -0.000618)
(0.04 -0.735423 0.02)
(0.04 0.38 -0.000618)
(0.07 -0.738733 0.02)
(0.07 0.736328 0.02)
(0.1 -0.738733 0.02)
(0.1 0.737187 0.02)
(0.13 -0.738415 0.02)
(0.1 -0.336797 0.02)
(0.13 0.736934 0.02)
(0.16 -0.73 0.017293)
(0.16 -0.72686 0.02)
(0.28 0.59 0.014676)
(0.28 0.62 -0.003036)
(0.37 0.47 0.016809)
(0.37 0.5 -0.000887)
(0.488922 -0.34 0.02)
(0.49 0.29 0.017302)
(0.467688 0.32 0.02)
(0.49 -0.34 0.017541)
(0.52 0.23 0.016545)
(0.52 0.26 0.005317)
(0.55 0.17 0.015683)
(0.55 0.2 0.003781)
(0.73 0.129436 0.02)
(0.85 0.08 0.018943)
(0.848247 0.08 0.02)
(0.88 -0.07 0.013499)
(0.868893 -0.07 0.02)
(0.94 -0.04 0.004104)
(0.913843 -0.04 0.02)
(0.94 0.02 0.014322)
(0.927939 0.02 0.02)
(0.91 0.05 0.016387)
(0.97 -0.01 -0.003142)
(-0.74 0.376553 0.05)
(-0.741335 0.38 0.05)
(-0.74 0.381301 0.05)
(-0.74 0.381301 0.02)
(-0.733855 -0.34 0.05)
(-0.71 0.35 0.036634)
(-0.68 -0.37 0.04)
(-0.65 -0.37 0.044066)
(-0.44 -0.37 0.040359)
(-0.44 0.327163 0.02)
(-0.38 -0.37 0.026347)
(-0.38 0.35 0.025244)
(-0.35 -0.37 0.026347)
(-0.35 0.35 0.025244)
(-0.32 -0.37 0.026347)
(-0.32 0.35 0.025244)
(-0.29 -0.37 0.026347)
(-0.29 0.35 0.025244)
(-0.26 -0.37 0.026347)
(-0.26 0.35 0.025244)
(-0.23 -0.37 0.026347)
(-0.245871 -0.01 0.05)
(-0.23 -0.01 0.037035)
(-0.240901 0.02 0.05)
(-0.23 0.02 0.039819)
(-0.23 0.35 0.025244)
(-0.2 -0.37 0.026347)
(-0.220251 -0.04 0.05)
(-0.2 -0.04 0.029718)
(-0.20327 -0.01 0.02)
(-0.2 0.0208 0.02)
(-0.2 0.35 0.025244)
(-0.17 -0.37 0.026347)
(-0.17 -0.062518 0.05)
(-0.2 -0.046256 0.05)
(-0.17 0.35 0.025244)
(-0.14 -0.37 0.026347)
(-0.14 -0.072793 0.02)
(-0.14 -0.078826 0.05)
(-0.159544 -0.07 0.05)
(-0.17 0.059403 0.05)
(-0.14 0.079414 0.05)
(-0.14 0.35 0.025244)
(-0.11 -0.37 0.026347)
(-0.11 0.35 0.025244)
(-0.08 -0.37 0.026347)
(-0.08 -0.1 0.043221)
(-0.08 0.35 0.025244)
(-0.05 -0.37 0.026347)
(-0.05 0.11 0.044915)
(-0.05 0.35 0.025244)
(-0.02 -0.37 0.026347)
(-0.02 0.35 0.025244)
(0.01 -0.37 0.026347)
(0.01 0.35 0.025244)
(0.04 -0.73 0.022805)
(0.04 -0.37 0.026347)
(0.04 -0.13 0.039681)
(0.04 0.35 0.025244)
(0.07 -0.73 0.025372)
(0.1 -0.73 0.025536)
(0.0868 0.38 0.02)
(0.13 -0.37 0.048593)
(0.13 -0.34 0.039225)
(0.13 0.35 0.048373)
(0.13 0.38 0.043419)
(0.16 -0.37 0.048593)
(0.16 -0.34 0.039225)
(0.16 0.35 0.048373)
(0.16 0.38 0.043419)
(0.19 -0.37 0.048593)
(0.19 -0.34 0.039225)
(0.19 0.35 0.048373)
(0.22 -0.37 0.048593)
(0.22 0.35 0.048373)
(0.25 -0.37 0.048593)
(0.25 0.35 0.048373)
(0.28 -0.37 0.048593)
(0.28 0.35 0.048373)
(0.31 -0.37 0.048593)
(0.34 -0.37 0.048593)
(0.37 -0.37 0.048593)
(0.4 -0.37 0.048593)
(0.4 0.35 0.048373)
(0.37 0.35 0.048373)
(0.43 -0.37 0.048593)
(0.43 0.35 0.048373)
(0.46 -0.34 0.039225)
(0.43 0.38 0.043419)
(0.58 -0.13 0.039681)
(0.55 -0.158148 0.02)
(0.73 -0.114999 0.05)
(0.7 -0.13 0.037541)
(0.73 0.11285 0.05)
(0.85 -0.07 0.032412)
(0.82 -0.07 0.047856)
(0.82 0.08 0.038727)
(0.91 -0.04 0.022908)
(-0.74 0.378045 0.08)
(-0.741335 0.38 0.08)
(-0.74 0.381301 0.08)
(-0.733855 -0.34 0.08)
(-0.44 -0.33133 0.08)
(-0.44 -0.33133 0.05)
(-0.44 0.391137 0.08)
(-0.44 0.391137 0.05)
(-0.434301 -0.34 0.08)
(-0.432792 0.38 0.08)
(-0.263476 -0.01 0.08)
(-0.263476 0.02 0.08)
(-0.2 0.052903 0.08)
(-0.2 0.052614 0.05)
(-0.11 0.08 0.077623)
(0.07 0.11 0.077559)
(0.04 0.11 0.077559)
(0.1 0.11 0.077559)
(0.13 0.11 0.077559)
(0.16 0.11 0.077559)
(0.19 0.11 0.077559)
(0.22 0.11 0.077559)
(0.61 0.11 0.077559)
(0.58 0.11 0.077559)
(0.64 0.11 0.077559)
(0.67 0.11 0.077559)
(0.7 0.11 0.075804)
(0.73 0.11 0.056284)
(-0.74 0.378045 0.11)
(-0.741335 0.38 0.11)
(-0.74 0.381301 0.11)
(-0.733855 -0.34 0.11)
(-0.44 -0.357302 0.08)
(-0.44 -0.357302 0.11)
(-0.44 -0.33133 0.11)
(-0.44 0.363267 0.08)
(-0.44 0.363267 0.11)
(-0.44 0.391137 0.11)
(-0.434991 -0.34 0.11)
(-0.433566 0.38 0.11)
(-0.260078 -0.01 0.11)
(-0.26 -0.008888 0.11)
(-0.26 0.023839 0.08)
(-0.2 -0.04 0.101182)
(-0.203588 0.05 0.08)
(-0.17 -0.04 0.104994)
(-0.17 0.05 0.098022)
(-0.14 -0.04 0.107719)
(-0.14 0.05 0.102276)
(-0.11 0.05 0.105373)
(-0.08 -0.07 0.096507)
(-0.11 -0.07 0.091384)
(-0.08 0.08 0.087954)
(-0.102435 0.08 0.08)
(-0.05 -0.07 0.100218)
(-0.05 0.08 0.093532)
(0.7 -0.1 0.08727)
(0.67 -0.1 0.089789)
(-0.74 0.378045 0.14)
(-0.741335 0.38 0.14)
(-0.74 0.381301 0.14)
(-0.733855 -0.34 0.14)
(-0.44 -0.357302 0.14)
(-0.44 -0.33133 0.14)
(-0.44 0.363267 0.14)
(-0.44 0.391137 0.14)
(-0.434991 -0.34 0.14)
(-0.433566 0.38 0.14)
(-0.23 -0.01 0.112565)
(-0.2 -0.01 0.113533)
(-0.2 0.02 0.111521)
(-0.17 0.02 0.112966)
(-0.74 0.378045 0.17)
(-0.741335 0.38 0.17)
(-0.74 0.381301 0.17)
(-0.733855 -0.34 0.17)
(-0.44 -0.357302 0.17)
(-0.44 -0.33133 0.17)
(-0.44 0.363267 0.17)
(-0.44 0.391137 0.17)
(-0.434991 -0.34 0.17)
(-0.433566 0.38 0.17)
(-0.71 -0.34903 0.2)
(-0.71 -0.335475 0.2)
(-0.71 0.369495 0.2)
(-0.71 0.386992 0.2)
(-0.68 -0.356592 0.2)
(-0.68 -0.331685 0.2)
(-0.68 0.364362 0.2)
(-0.68 0.390268 0.2)
(-0.65 -0.362535 0.2)
(-0.65 -0.329391 0.2)
(-0.65 0.360988 0.2)
(-0.65 0.391623 0.2)
(-0.62 -0.368931 0.2)
(-0.62 -0.328159 0.2)
(-0.62 0.356628 0.2)
(-0.62 0.393119 0.2)
(-0.59 -0.372086 0.2)
(-0.615486 -0.37 0.2)
(-0.59 -0.326887 0.2)
(-0.59 0.351099 0.2)
(-0.59 0.394697 0.2)
(-0.56 -0.373917 0.2)
(-0.56 -0.325748 0.2)
(-0.56 0.34855 0.2)
(-0.583768 0.35 0.2)
(-0.56 0.396144 0.2)
(-0.53 -0.374908 0.2)
(-0.53 -0.325043 0.2)
(-0.53 0.347559 0.2)
(-0.53 0.397054 0.2)
(-0.5 -0.374647 0.2)
(-0.5 -0.325235 0.2)
(-0.5 0.34782 0.2)
(-0.5 0.396805 0.2)
(-0.47 -0.372463 0.2)
(-0.47 -0.326668 0.2)
(-0.47005 0.35 0.2)
(-0.47 0.350011 0.2)
(-0.47 0.394973 0.2)
(-0.461628 -0.37 0.2)
(-0.434991 -0.34 0.2)
(-0.434093 0.38 0.2)
(-0.71 -0.34 0.205535)
(-0.71 0.38 0.20777)
(-0.68 -0.34 0.208809)
(-0.68 0.38 0.21)
(-0.65 -0.34 0.21)
(-0.65 0.38 0.21)
(-0.62 -0.34 0.21)
(-0.62 0.38 0.21)
(-0.59 -0.34 0.21)
(-0.59 0.38 0.21)
(-0.56 -0.37 0.204912)
(-0.59 -0.37 0.202834)
(-0.56 -0.34 0.21)
(-0.56 0.38 0.21)
(-0.53 -0.37 0.205911)
(-0.53 -0.34 0.21)
(-0.53 0.35 0.203263)
(-0.56 0.35 0.202028)
(-0.53 0.38 0.21)
(-0.5 -0.37 0.205656)
(-0.5 -0.34 0.21)
(-0.5 0.35 0.202949)
(-0.5 0.38 0.21)
(-0.47 -0.37 0.203289)
(-0.47 -0.34 0.21)
(-0.47 0.38 0.21)
(-0.020348 -0.01 -0.1)
(0.438439 -0.13 -0.04)
(0.46 -0.13 -0.040813)
(0.449982 0.14 -0.04)
(0.46 0.14 -0.040867)
(0.49 -0.13 -0.043178)
(0.49 0.14 -0.043173)
(0.52 -0.13 -0.044777)
(0.52 0.14 -0.044574)
(0.55 -0.13 -0.043985)
(0.55 0.14 -0.043149)
(0.559996 0.14 -0.04)
(-0.71 0.32 -0.012023)
(-0.68 0.32 -0.015811)
(-0.65 0.32 -0.019215)
(-0.62 0.32 -0.022157)
(-0.02 -0.124 -0.01)
(0.1 -0.4 -0.0173)
(0.13 -0.4 -0.02241)
(0.13 0.32 -0.018163)
(0.13 0.41 -0.022148)
(0.16 -0.4 -0.022272)
(0.16 -0.16 -0.018427)
(0.16 0.14 -0.0163)
(0.16 0.32 -0.023876)
(0.16 0.41 -0.022148)
(0.19 -0.4 -0.02287)
(0.19 -0.16 -0.026326)
(0.16 -0.13 -0.039681)
(0.19 -0.13 -0.039681)
(0.19 0.14 -0.025923)
(0.19 0.32 -0.023704)
(0.19 0.41 -0.022863)
(0.22 -0.4 -0.024063)
(0.22 -0.13 -0.039681)
(0.22 0.14 -0.026938)
(0.22 0.32 -0.024234)
(0.22 0.41 -0.024164)
(0.25 -0.4 -0.025818)
(0.25 -0.13 -0.039681)
(0.25 0.14 -0.027173)
(0.25 0.32 -0.025334)
(0.25 0.41 -0.026028)
(0.28 -0.4 -0.028085)
(0.28 -0.13 -0.039681)
(0.28 0.14 -0.027963)
(0.28 0.32 -0.026963)
(0.28 0.41 -0.028382)
(0.31 -0.4 -0.030675)
(0.31 -0.13 -0.039681)
(0.31 0.14 -0.02923)
(0.31 0.32 -0.029096)
(0.34 -0.13 -0.039681)
(0.34 0.14 -0.030959)
(0.34 0.32 -0.031604)
(0.37 -0.13 -0.039681)
(0.37 0.14 -0.032617)
(0.4 -0.13 -0.039681)
(0.4 0.14 -0.034837)
(0.43 -0.13 -0.039681)
(0.43 0.14 -0.037722)
(0.46 0.393989 -0.01)
(0.61 -0.139133 -0.01)
(-0.71 -0.31 -0.003932)
(-0.68 -0.31 0.007433)
(-0.68 0.32 0.007433)
(-0.65 -0.31 0.017644)
(-0.65 0.32 0.017644)
(-0.641993 -0.31 0.02)
(-0.641993 0.32 0.02)
(-0.453219 -0.31 0.02)
(-0.453219 0.32 0.02)
(-0.41 0.347366 0.02)
(-0.41 0.362984 0.02)
(-0.41 0.38 -0.000618)
(0.01 0.71 0.007713)
(0.07 0.362984 0.02)
(0.07 0.38 -0.000618)
(0.1 -0.4 -0.004566)
(0.1 0.41 -0.002615)
(0.13 -0.4 0.004166)
(0.13 -0.31 -0.00505)
(0.13 0.41 0.004903)
(0.16 -0.4 0.011464)
(0.16 -0.31 0.004918)
(0.16 -0.16 -0.005156)
(0.16 0.14 -0.005939)
(0.16 0.32 0.005151)
(0.13 0.32 -0.004234)
(0.16 0.41 0.013214)
(0.179364 -0.4 0.02)
(0.19 -0.31 0.011924)
(0.19 -0.16 0.005658)
(0.19 0.14 0.004313)
(0.19 0.32 0.012521)
(0.174643 0.41 0.02)
(0.209551 -0.31 0.02)
(0.22 -0.16 0.012995)
(0.22 0.14 0.011942)
(0.20768 0.32 0.02)
(0.238589 -0.16 0.02)
(0.242377 0.14 0.02)
(0.58 0.14 0.002156)
(0.555344 0.14 0.02)
(-0.68 -0.356592 0.05)
(-0.68 0.363801 0.05)
(-0.65 -0.363388 0.05)
(-0.65 0.358684 0.05)
(-0.62 -0.369262 0.05)
(-0.65 -0.32828 0.05)
(-0.62 -0.325336 0.05)
(-0.62 -0.31 0.023699)
(-0.62 0.354261 0.05)
(-0.615486 -0.37 0.05)
(-0.59 -0.31 0.027908)
(-0.59 -0.32288 0.05)
(-0.59 0.32 0.024611)
(-0.62 0.32 0.022157)
(-0.59 0.350571 0.05)
(-0.56 -0.31 0.031045)
(-0.56 -0.32105 0.05)
(-0.56 0.32 0.026438)
(-0.583768 0.35 0.05)
(-0.53 -0.31 0.032742)
(-0.53 -0.320059 0.05)
(-0.53 0.32 0.027426)
(-0.53 0.347072 0.05)
(-0.56 0.348261 0.05)
(-0.5 -0.31 0.032289)
(-0.5 -0.32032 0.05)
(-0.5 0.32 0.02716)
(-0.5 0.347386 0.05)
(-0.47 -0.31 0.028528)
(-0.47 -0.322504 0.05)
(-0.47 0.32 0.024966)
(-0.44 -0.357302 0.05)
(-0.44 0.363267 0.05)
(-0.47 0.350005 0.05)
(-0.427515 -0.34 0.02)
(-0.02 -0.124 0.02)
(0.19 -0.4 0.022681)
(0.19 0.41 0.023724)
(0.22 -0.4 0.02864)
(0.22 0.32 0.023171)
(0.25 -0.4 0.033021)
(0.25 -0.16 0.023099)
(0.25 0.14 0.022119)
(0.25 0.32 0.029397)
(0.28 -0.16 0.029951)
(0.28 -0.13 0.039681)
(0.25 -0.13 0.039681)
(0.28 0.14 0.029205)
(0.28 0.32 0.034129)
(0.31 -0.13 0.039681)
(0.31 0.14 0.034956)
(0.34 -0.13 0.039681)
(0.34 0.14 0.039408)
(0.37 -0.13 0.041763)
(0.37 0.14 0.042183)
(0.4 -0.13 0.043453)
(0.4 0.14 0.043663)
(0.43 -0.13 0.04383)
(0.43 0.14 0.043838)
(0.46 -0.13 0.042624)
(0.46 0.14 0.042529)
(0.43 0.32 0.032508)
(0.472194 -0.31 0.02)
(0.46 -0.31 0.026314)
(0.49 -0.13 0.040207)
(0.49 0.14 0.039656)
(0.52 -0.13 0.039681)
(0.52 0.14 0.034018)
(0.55 -0.13 0.039681)
(0.55 0.14 0.023868)
(-0.23 0.02924 0.08)
)


// edges:

1102
(
(192 193)
(194 192)
(195 196)
(197 195)
(198 197)
(199 198)
(200 201)
(202 0)
(0 203)
(203 204)
(205 206)
(206 207)
(207 208)
(209 210)
(210 211)
(212 213)
(214 215)
(213 216)
(217 218)
(218 219)
(220 97)
(221 202)
(222 1)
(2 1)
(223 3)
(4 3)
(224 4)
(1 225)
(3 226)
(4 227)
(225 228)
(226 229)
(227 230)
(228 231)
(229 232)
(230 233)
(231 234)
(232 235)
(233 236)
(234 237)
(235 238)
(237 239)
(238 240)
(239 241)
(240 242)
(241 243)
(242 244)
(243 245)
(244 246)
(245 247)
(246 248)
(247 249)
(248 250)
(249 251)
(98 252)
(251 5)
(99 5)
(252 7)
(7 6)
(253 7)
(100 254)
(211 255)
(255 8)
(256 8)
(257 258)
(215 259)
(216 9)
(260 9)
(261 10)
(11 262)
(263 12)
(12 10)
(9 12)
(12 264)
(18 17)
(265 17)
(18 102)
(103 265)
(102 104)
(104 266)
(266 267)
(267 268)
(268 269)
(269 270)
(270 271)
(271 272)
(272 273)
(273 274)
(274 275)
(275 276)
(276 277)
(277 278)
(278 279)
(279 280)
(280 281)
(281 282)
(282 283)
(283 284)
(284 285)
(285 105)
(105 19)
(105 106)
(20 19)
(14 20)
(106 14)
(16 286)
(17 287)
(19 288)
(20 289)
(286 290)
(287 291)
(288 292)
(289 293)
(290 294)
(291 295)
(292 296)
(293 297)
(294 298)
(295 299)
(300 301)
(297 302)
(298 303)
(299 304)
(305 300)
(302 306)
(303 307)
(304 308)
(309 305)
(306 310)
(307 311)
(308 312)
(313 309)
(310 314)
(311 315)
(312 316)
(317 313)
(314 318)
(315 319)
(316 320)
(321 21)
(322 321)
(323 322)
(324 323)
(325 324)
(326 325)
(327 326)
(328 327)
(329 328)
(330 329)
(331 330)
(332 331)
(333 332)
(334 333)
(335 334)
(336 335)
(337 336)
(338 337)
(339 338)
(340 339)
(341 340)
(22 341)
(342 107)
(107 22)
(318 343)
(319 344)
(320 108)
(345 346)
(21 108)
(347 109)
(348 347)
(349 348)
(350 349)
(351 350)
(352 351)
(353 352)
(354 353)
(355 354)
(356 355)
(357 356)
(358 357)
(359 358)
(360 359)
(361 360)
(362 361)
(363 362)
(364 363)
(365 364)
(366 365)
(367 366)
(368 367)
(110 368)
(111 110)
(107 111)
(343 369)
(108 370)
(109 371)
(111 372)
(369 373)
(370 374)
(375 376)
(371 377)
(372 378)
(379 380)
(373 381)
(382 383)
(374 384)
(377 385)
(378 386)
(381 387)
(384 388)
(385 389)
(386 390)
(387 391)
(388 392)
(389 393)
(390 394)
(391 395)
(392 396)
(393 397)
(394 398)
(395 399)
(396 400)
(397 401)
(398 402)
(399 403)
(400 404)
(401 405)
(402 406)
(403 407)
(404 408)
(405 409)
(406 410)
(407 411)
(408 412)
(409 413)
(414 415)
(410 416)
(411 417)
(412 418)
(413 419)
(415 217)
(416 420)
(417 421)
(23 422)
(423 23)
(23 424)
(24 425)
(424 24)
(418 426)
(419 427)
(420 428)
(421 429)
(430 25)
(25 26)
(27 430)
(26 27)
(422 431)
(432 423)
(24 433)
(433 434)
(28 435)
(434 28)
(426 436)
(427 437)
(29 438)
(428 439)
(429 440)
(441 442)
(443 444)
(442 445)
(445 25)
(27 446)
(447 432)
(28 448)
(448 449)
(449 450)
(436 451)
(437 452)
(453 220)
(29 454)
(439 455)
(440 456)
(457 30)
(30 458)
(459 457)
(458 460)
(460 461)
(461 441)
(446 112)
(462 447)
(450 463)
(463 464)
(464 465)
(451 466)
(467 468)
(452 469)
(453 470)
(455 471)
(456 472)
(473 113)
(474 31)
(31 475)
(476 474)
(475 477)
(477 30)
(112 478)
(479 462)
(465 480)
(480 481)
(481 482)
(466 114)
(483 467)
(469 115)
(471 116)
(484 485)
(472 117)
(113 118)
(486 487)
(487 488)
(488 31)
(478 489)
(490 479)
(482 491)
(491 119)
(114 222)
(119 483)
(492 2)
(120 492)
(493 494)
(495 484)
(116 223)
(121 224)
(118 122)
(122 486)
(489 496)
(497 490)
(120 124)
(498 123)
(124 499)
(499 500)
(501 493)
(502 503)
(503 504)
(504 125)
(125 495)
(496 126)
(505 497)
(500 506)
(506 507)
(507 508)
(508 127)
(127 501)
(128 509)
(509 510)
(510 511)
(511 502)
(126 129)
(32 33)
(33 505)
(512 32)
(35 34)
(129 35)
(130 33)
(36 130)
(513 130)
(131 36)
(132 131)
(34 514)
(515 516)
(35 515)
(133 513)
(134 133)
(132 37)
(517 134)
(135 37)
(514 518)
(519 520)
(516 519)
(136 517)
(521 136)
(522 136)
(523 521)
(518 524)
(525 526)
(520 525)
(137 522)
(38 137)
(527 137)
(138 38)
(139 138)
(528 529)
(39 530)
(524 39)
(531 39)
(526 531)
(140 527)
(141 140)
(139 40)
(532 141)
(142 40)
(529 533)
(534 535)
(530 534)
(143 532)
(41 143)
(142 41)
(536 143)
(144 41)
(533 537)
(538 539)
(535 538)
(145 536)
(42 145)
(540 145)
(146 42)
(147 146)
(541 542)
(43 543)
(537 43)
(544 43)
(539 544)
(148 540)
(149 148)
(545 148)
(546 149)
(547 546)
(44 98)
(542 44)
(548 549)
(543 548)
(550 545)
(551 550)
(45 551)
(150 99)
(549 552)
(5 45)
(5 151)
(152 151)
(150 46)
(46 152)
(553 46)
(554 553)
(6 555)
(6 153)
(153 556)
(7 557)
(154 558)
(559 154)
(560 561)
(562 560)
(563 564)
(565 566)
(567 565)
(155 567)
(568 559)
(569 568)
(570 569)
(571 572)
(573 574)
(575 576)
(577 575)
(566 577)
(578 570)
(579 578)
(580 579)
(581 582)
(583 156)
(584 585)
(586 584)
(576 586)
(157 580)
(158 157)
(585 159)
(101 47)
(47 587)
(48 588)
(588 589)
(589 590)
(591 260)
(11 592)
(264 593)
(49 15)
(50 18)
(161 102)
(50 161)
(161 104)
(162 51)
(52 106)
(51 52)
(52 160)
(163 594)
(594 595)
(595 596)
(596 597)
(597 598)
(598 599)
(599 600)
(600 601)
(601 602)
(602 603)
(603 604)
(604 605)
(605 606)
(606 607)
(607 608)
(608 609)
(609 610)
(610 611)
(611 612)