/*--------------------------------*- C++ -*----------------------------------*\
(2 2 2)
  \\      /  F ield         | OpenFOAM: The Open Source CFD Toolbox
   \\    /   O peration     | Website:  https://openfoam.org
    \\  /    A nd           | Version:  12
     \\/     M anipulation  |
\*---------------------------------------------------------------------------*/
FoamFile
{
    format      ascii;
    class       dictionary;
    object      blockMeshDict;
}

// * * * * * * * * * * * * * * * * * * * * * * * * * * * * * * * * * * * * * //

convertToMeters 1;

//z is vertical position
vertices
(
   (-2.343860 -1.228144 -0.657192)
   (1.620871 -1.228144 -0.657192)
   (1.620871 1.228144 -0.657192)
   (-2.343860 1.228144 -0.657192)

   (-2.343860 -1.228144 0.657192)
   (1.620871 -1.228144 0.657192)
   (1.620871 1.228144 0.657192)
   (-2.343860 1.228144 0.657192)
);

blocks
(
    hex (0 1 2 3 4 5 6 7) (40 15 15) simpleGrading (1 1 1)
);

edges
(
);


boundary
(
    front //positive y
    {
        type patch;
        faces
        (
            (3 7 6 2)
        );
    }
    back //negative y
    {
        type patch;
        faces
        (
            (1 5 4 0)
        );
    }
    inlet
    {
        type patch;
        faces
        (
            (0 4 7 3)
        );
    }
    outlet
    {
        type patch;
        faces
        (
            (2 6 5 1)
        );
    }
    lower //negative z
    {
        type patch;
        faces
        (
            (0 3 2 1)
        );
    }
    upper //positive z
    {
        type patch;
        faces
        (
            (4 5 6 7)
        );
    }


);

// ************************************************************************* //
