/*--------------------------------*- C++ -*----------------------------------*\
  =========                 |
  \\      /  F ield         | OpenFOAM: The Open Source CFD Toolbox
   \\    /   O peration     | Website:  https://openfoam.org
    \\  /    A nd           | Version:  12
     \\/     M anipulation  |
\*---------------------------------------------------------------------------*/
FoamFile
{
    version     2.0;
    format      ascii;
    class       dictionary;
    location    "system";
    object      fvSolution;
}
// * * * * * * * * * * * * * * * * * * * * * * * * * * * * * * * * * * * * * //

solvers
{

    p
    {
        solver          GAMG;
        tolerance       1e-4;
        relTol          0.01;
        smoother        GaussSeidel;
        nPreSweeps      0;
        nPostSweeps     2;
        cacheAgglomeration on;
        agglomerator    faceAreaPair;
        nCellsInCoarsesLevel 1000;
        mergeLevels     1;
    }

    Phi{
        $p;
    }

    pFinal
    {
        solver          GAMG;
        tolerance       1e-7;
        relTol          0.0;
        smoother        GaussSeidel;
        nPreSweeps 0;
        nPostSweeps 2;
        cacheAgglomeration on;
        agglomerator faceAreaPair;
        nCellsInCoarsestLevel 1000;
        mergeLevels 1;
    }

    U
    {
        type coupled;
        solver PBiCCCG;
        preconditioner DILU;
        tolerance (1e-08 1e-08 1e-08);
        relTol (0 0 0);
        minIter 3;
    }

    UFinal
    {
        type coupled;
        solver PBiCCCG;
        preconditioner DILU;
        tolerance (1e-08 1e-08 1e-08);
        relTol (0 0 0);
        minIter 3;
    }
    

    "(k|omega)"
    {
        solver          smoothSolver;
        smoother        symGaussSeidel;
        tolerance       1e-06;
        relTol          0.1;
    }

    "(k|omega)Final"
    {
        $U;
        tolerance       1e-07;
        relTol          0;
    }

    cellDisplacement
    {
        solver          GAMG;
        tolerance       1e-5;
        relTol          0;
        smoother        GaussSeidel;
    }


}

PIMPLE
{
    momentumPredictor   yes;

    correctPhi          yes;
    nOuterCorrectors    1;
    nCorrectors         3;
    nNonOrthogonalCorrectors 1;
    turbOnFinalIterOnly false;
}


potentialFlow
{
    nNonOrthogonalCorrectors 20;
    PhiRefCell 0;
    PhiRefValue 0.0;
}



relaxationFactors
{
    fields
    {
        p               0.3;
        U               0.7;
    }
    equations
    {
        "(U|k|omega)"   0.7;
        "(U|k|omega)Final" 0.9;
    }
}

cache
{
    grad(U);
}




// ************************************************************************* //
