/*--------------------------------*- C++ -*----------------------------------*\
  =========                 |
  \\      /  F ield         | OpenFOAM: The Open Source CFD Toolbox
   \\    /   O peration     | Website:  https://openfoam.org
    \\  /    A nd           | Version:  12
     \\/     M anipulation  |
\*---------------------------------------------------------------------------*/
FoamFile
{
    version     2.0;
    format      ascii;
    class       dictionary;
    location    "system";
    object      fvSchemes;
}
// * * * * * * * * * * * * * * * * * * * * * * * * * * * * * * * * * * * * * //

ddtSchemes
{
    default         Euler;
}

gradSchemes
{
    default cellMDLimited Gauss linear 0;
    grad(U) cellMDLimited Gauss linear 0.333;
}

divSchemes
{
    default         none;
    div(phi,U)      Gauss linearUpwind grad(U);
    turbulence      Gauss linearUpwind default;
    div(phi,k)      $turbulence;
    div(phi,omega)  $turbulence;
    div(div(phi,U)) Gauss linear;

    div((nuEff*dev2(T(grad(U))))) Gauss linear;

}

laplacianSchemes
{
    default         Gauss linear limited 1.0;
}

interpolationSchemes
{
    default         linear;
}

snGradSchemes
{
    default         limited 1.0;
}

wallDist
{
    method meshWave;
}


// ************************************************************************* //
