/*--------------------------------*- C++ -*----------------------------------*\
  =========                 |
  \\      /  F ield         | OpenFOAM: The Open Source CFD Toolbox
   \\    /   O peration     | Website:  https://openfoam.org
    \\  /    A nd           | Version:  12
     \\/     M anipulation  |
\*---------------------------------------------------------------------------*/
FoamFile
{
    format      ascii;
    class       extendedFeatureEdgeMesh;
    location    "constant/extendedFeatureEdgeMesh";
    object      aircraftModel.extendedFeatureEdgeMesh;
}
// * * * * * * * * * * * * * * * * * * * * * * * * * * * * * * * * * * * * * //

// points

395
(
(-0.0472951 0.585355 -0.0342678)
(0.143052 -0.151002 -0.0264788)
(-0.123119 -0.589595 -0.00810768)
(-0.114248 -0.562779 -0.0100063)
(-0.104175 -0.52285 -0.00992187)
(-0.119463 0.581794 -0.0109215)
(-0.119804 0.586471 -0.00919114)
(-0.124162 -0.593772 -0.00421537)
(-0.127191 -0.59323 -0.00412253)
(-0.125648 -0.593222 -0.00610064)
(-0.101984 -0.514302 -0.000992958)
(-0.097518 -0.480906 -0.00465035)
(-0.0876338 -0.440754 -0.00454239)
(-0.0386303 -0.25356 -0.0067444)
(-0.0182036 0.165059 -0.00441826)
(-0.0204138 0.16949 -0.00209728)
(-0.0302108 0.209951 -0.00195991)
(-0.0806112 0.41866 -0.0047069)
(-0.0896934 0.449986 -0.0016427)
(-0.11956 0.588233 -0.00457815)
(-0.115284 0.591357 -0.00146218)
(-0.0244919 -0.590549 0.00616797)
(-0.0497659 -0.306022 0.00564079)
(-0.019438 -0.196232 0.0052531)
(-0.0179556 0.165848 -0.000187835)
(-0.0380407 0.258691 0.00184608)
(-0.0485959 0.288114 0.00160977)
(-0.112471 0.586858 0.00708333)
(-0.0174357 0.586089 0.00152311)
(-0.10922 0.590205 0.00509112)
(-0.108682 0.585645 0.00915563)
(-0.0154902 -0.127823 -0.00265463)
(0.141027 0.12982 0.00788217)
(-0.0664267 0.591264 -0.024132)
(-0.0642312 -0.373098 -0.0104546)
(-0.0635836 -0.363975 -0.00326542)
(-0.0111576 -0.133789 -0.00510863)
(-0.00563926 0.137042 -0.00238884)
(-0.0127577 0.158574 -0.00387375)
(-0.0225902 0.199107 -0.00380787)
(-0.0446183 0.280486 -0.00359339)
(-0.0845075 0.439632 -0.0038366)
(-0.11461 0.551223 -0.00281286)
(-0.00892282 -0.135286 0.00280794)
(-0.000894825 0.136255 0.00892931)
(-0.0216371 0.207424 0.00502317)
(-0.0441847 0.287805 0.00444902)
(-0.0696438 -0.590307 -0.0314522)
(-0.0645352 -0.590293 -0.0332987)
(-0.0553446 -0.593299 -0.0298333)
(-0.0665184 -0.59291 -0.0287261)
(-0.0578843 -0.590254 -0.0337003)
(-0.0505238 -0.590824 -0.0332279)
(-0.0540399 0.586122 -0.0334655)
(-0.043403 0.586413 -0.0330641)
(-0.0996235 -0.590405 -0.0212008)
(-0.0946021 -0.589999 -0.0232217)
(-0.0877149 -0.589864 -0.0245377)
(-0.0769726 -0.590543 -0.0273012)
(-0.0420198 -0.588709 -0.0315231)
(-0.0338255 -0.588219 -0.0285953)
(-0.0362667 -0.592867 -0.0232623)
(-0.0469048 -0.592884 -0.0293944)
(0.142256 -0.155421 -0.0211456)
(0.137838 -0.151758 -0.0312314)
(-0.0944035 0.586468 -0.0240094)
(-0.0860249 0.588165 -0.0253729)
(-0.0781685 0.58646 -0.0271816)
(-0.0371018 0.58665 -0.0292724)
(-0.0168608 0.584739 -0.0204503)
(-0.0138627 0.579691 -0.0192525)
(-0.0967188 0.59187 -0.0181659)
(-0.0878665 0.591623 -0.0203382)
(-0.0782722 0.591607 -0.0215644)
(-0.116221 -0.587734 -0.0135425)
(-0.107034 -0.590547 -0.0166382)
(-0.120241 -0.581257 -0.0101194)
(-0.111031 -0.551583 -0.0101837)
(-0.0995782 -0.511586 -0.0101922)
(-0.0937981 -0.482789 -0.00988835)
(-0.0897261 -0.47129 -0.010306)
(-0.0612193 -0.362041 -0.0109354)
(-0.0598507 -0.350774 -0.0110797)
(-0.0548941 -0.332813 -0.010066)
(-0.0517848 -0.322003 -0.0102005)
(0.138681 0.164306 -0.0134147)
(0.141961 0.159441 -0.010784)
(0.0380692 0.44506 -0.0119197)
(0.0419476 0.439085 -0.0100697)
(-0.114347 0.585587 -0.0139281)
(-0.106422 0.58521 -0.0191225)
(-0.115532 0.591002 -0.00805498)
(-0.10572 0.591685 -0.012929)
(-0.0208558 0.591524 -0.0133975)
(-0.0191095 0.589186 -0.0184262)
(-0.117261 -0.593172 -0.00824659)
(-0.117628 -0.59322 -0.00064109)
(-0.126553 -0.591211 -0.00468248)
(-0.123282 -0.584632 -0.00321427)
(-0.120984 -0.573877 -0.00366357)
(-0.00865444 -0.576986 -0.00503042)
(-0.0125738 -0.58309 -0.00490613)
(-0.00687227 -0.572604 -0.00615614)
(-0.119631 -0.566254 -0.00405447)
(-0.118255 -0.564288 -0.00668208)
(-0.116773 -0.561462 -0.00250026)
(-0.112577 -0.553737 -0.000714062)
(0.0017565 -0.546331 -0.00503911)
(-0.00213875 -0.553125 -0.00492277)
(-0.111554 -0.543209 -0.0031334)
(-0.110905 -0.533127 -0.00377377)
(-0.109861 -0.526054 -0.00406436)
(-0.108447 -0.524212 -0.00662052)
(-0.106781 -0.521714 -0.00256182)
(-0.100088 -0.503047 -0.00292377)
(-0.0995741 -0.492091 -0.00342738)
(-0.0985223 -0.489653 -0.00788817)
(-0.0985485 -0.500366 -0.00946889)
(-0.0995619 -0.485073 -0.0043572)
(-0.0985663 -0.483925 -0.0067171)
(-0.0933088 -0.474098 -0.00290805)
(-0.0903652 -0.462647 -0.00318676)
(-0.089627 -0.451853 -0.00331764)
(-0.0886394 -0.449529 -0.00785123)
(-0.0886805 -0.460205 -0.0094616)
(-0.0896535 -0.444902 -0.00421629)
(-0.0887049 -0.443781 -0.00666049)
(-0.0833882 -0.434056 -0.00277228)
(0.0415301 -0.436525 -0.00508431)
(0.0373956 -0.443739 -0.00514413)
(0.0434922 -0.432123 -0.00612964)
(-0.0804584 -0.422889 -0.00305763)
(-0.0798423 -0.412152 -0.00321448)
(-0.0784584 -0.409405 -0.00783503)
(-0.0787301 -0.420507 -0.00934332)
(0.0475256 -0.413772 -0.00500008)
(0.0446659 -0.425385 -0.00509353)
(-0.0800478 -0.404643 -0.00376847)
(0.0516878 -0.406308 -0.00499585)
(0.0536579 -0.401881 -0.00603661)
(-0.0787042 -0.400028 -0.00293157)
(-0.0736308 -0.394127 -0.00307536)
(-0.0698589 -0.381713 -0.00344632)
(-0.0684666 -0.379105 -0.00809695)
(-0.0692195 -0.389637 -0.00985477)
(-0.0692814 -0.374673 -0.00438013)
(-0.0684123 -0.373598 -0.00686381)
(0.0619991 -0.376306 -0.00468674)
(0.0578463 -0.383841 -0.00477367)
(0.0640106 -0.372276 -0.00596715)
(-0.0674089 -0.37067 -0.00479541)
(-0.061054 -0.352661 -0.00387363)
(-0.0600522 -0.342184 -0.00396256)
(-0.0597026 -0.335401 -0.00447375)
(-0.0588127 -0.334224 -0.00697263)
(-0.0590112 -0.340187 -0.00928385)
(-0.0578326 -0.331136 -0.00414101)
(-0.0543753 -0.324105 -0.00104116)
(0.0775749 -0.323994 -0.00182063)
(0.0753731 -0.33579 -0.0046674)
(-0.0512845 -0.304357 -0.00122207)
(-0.0496356 -0.296009 -0.00385641)
(0.091717 -0.296784 -0.00444332)
(0.0880315 -0.303421 -0.00450994)
(0.0936551 -0.292584 -0.00551966)
(-0.0474583 -0.291766 -0.0042)
(-0.0438926 -0.28641 -0.00177117)
(-0.0405475 -0.274723 -0.000700243)
(-0.0397649 -0.262841 -0.0028053)
(0.101609 -0.266483 -0.00461106)
(0.0978574 -0.273651 -0.00445893)
(0.103523 -0.262214 -0.00571626)
(-0.039554 -0.25528 -0.00400474)
(-0.0346278 -0.25276 -0.0104868)
(-0.0379011 -0.25144 -0.00429959)
(-0.0343395 -0.246111 -0.00188832)
(-0.0307573 -0.234387 -0.000964704)
(-0.0277974 -0.221331 -0.00426915)
(-0.0248322 -0.214549 -0.00117155)
(0.120912 -0.216385 -0.00523367)
(0.117435 -0.223653 -0.00516848)
(0.122711 -0.210625 -0.00605343)
(-0.0211598 -0.194501 -0.00143656)
(-0.0196582 -0.186087 -0.00394362)
(0.130644 -0.186089 -0.00543542)
(0.127728 -0.192139 -0.00581963)
(-0.0176612 -0.181462 -0.00420317)
(-0.0144202 -0.174527 -0.00126157)
(-0.0111688 -0.154131 -0.000903915)
(-0.0103591 -0.142286 -0.00234338)
(0.145904 0.139848 -0.0052468)
(0.151818 0.132058 -0.00232827)
(-0.00743357 0.14512 -0.00068606)
(-0.00961899 0.149949 -0.00112357)
(0.142609 0.149379 -0.00584216)
(0.142531 0.156283 -0.00811106)
(-0.0203998 0.176924 -0.00236815)
(-0.0203175 0.187307 -0.00259239)
(-0.0277764 0.205619 -0.00426884)
(-0.0309371 0.217409 -0.00248526)
(-0.0317562 0.228751 -0.00422599)
(-0.0335123 0.239457 -0.00127902)
(0.107671 0.248787 -0.00496319)
(0.110845 0.242074 -0.00566927)
(-0.0346296 0.249123 -0.0042903)
(-0.0374525 0.256061 -0.000987611)
(-0.0409687 0.268789 -0.0043339)
(-0.0480596 0.285961 -0.000892108)
(-0.0497132 0.289842 -0.000975999)
(-0.0501054 0.29727 -0.00223583)
(-0.0511597 0.308777 -0.0044852)
(-0.0547203 0.320493 -0.00288504)
(-0.0585695 0.325649 -0.00223036)
(-0.0594777 0.329678 -0.00135132)
(-0.059913 0.337219 -0.00266127)
(-0.0607465 0.348956 -0.00519581)
(-0.06394 0.359756 -0.00539821)
(0.0680549 0.358289 -0.00453928)
(0.0705459 0.351869 -0.00572053)
(-0.0663781 0.364142 -0.00151767)
(-0.0689666 0.370382 -0.00158474)
(0.0661885 0.364186 -0.00471953)
(-0.0707856 0.378696 -0.00480311)
(-0.0693554 0.375769 -0.00943657)
(-0.0677707 0.369393 -0.00691744)
(-0.0694668 0.380935 -0.0110648)
(-0.0723268 0.388747 -0.00321718)
(0.0575618 0.388697 -0.00508306)
(0.0606169 0.381735 -0.00594408)
(-0.0768224 0.403635 -0.00212385)
(-0.0790254 0.410043 -0.00189234)
(-0.0793184 0.415702 -0.00945291)
(-0.077921 0.409074 -0.00726099)
(-0.0793237 0.420875 -0.0110212)
(-0.0819598 0.428927 -0.00229566)
(-0.0885088 0.445524 -0.00244854)
(0.0360197 0.446176 -0.00319958)
(0.0396355 0.440586 -0.00505901)
(-0.091033 0.458526 -0.00483227)
(-0.0943808 0.4693 -0.00552801)
(-0.0970086 0.473565 -0.00172972)
(-0.0990967 0.479495 -0.00116027)
(-0.0999764 0.487269 -0.00259455)
(-0.101196 0.498642 -0.00519643)
(-0.104483 0.509407 -0.0054526)
(-0.107094 0.513634 -0.00165026)
(-0.109231 0.51955 -0.00112369)
(-0.11009 0.527447 -0.00258194)
(-0.110925 0.539011 -0.00467313)
(-0.118783 0.555638 -0.00227353)
(-0.120006 0.559655 -0.00127689)
(-0.120502 0.567633 -0.00242387)
(-0.120798 0.579666 -0.00516627)
(-0.119908 0.577374 -0.009875)
(-0.119118 0.570701 -0.00848014)
(-0.124062 -0.591165 -0.00160285)
(-0.119523 -0.590734 0.0018133)
(-0.113352 -0.588931 0.00531212)
(-0.109443 -0.593112 0.00352576)
(-0.0200461 -0.589271 0.00170289)
(-0.0290554 -0.592747 0.00343396)
(-0.0497676 -0.328192 0.00655812)
(-0.0503792 -0.319714 0.00655821)
(-0.0492365 -0.301054 0.004283)
(-0.0522037 -0.313363 0.00332033)
(-0.0476847 -0.29493 0.00153321)
(-0.0385446 -0.272132 0.00423159)
(-0.0379915 -0.265672 0.00309755)
(-0.031208 -0.241543 0.00425317)
(-0.0289087 -0.23603 0.00551483)
(-0.0286436 -0.231337 0.00399579)
(-0.0276287 -0.224764 0.0014942)
(-0.0222717 -0.219156 0.00648956)
(-0.0210667 -0.210364 0.00644858)
(-0.0189251 -0.19122 0.00382769)
(-0.0221491 -0.203644 0.00314281)
(-0.0175908 -0.184771 0.0013919)
(-0.0119078 -0.179135 0.00625751)
(-0.0105908 -0.170327 0.0061682)
(-0.00910874 -0.156076 0.00523195)
(-0.00879964 -0.151188 0.00432597)
(-0.00824978 -0.144963 0.00353071)
(0.144949 -0.140772 -0.00336463)
(0.150203 -0.133727 0.00168551)
(-0.00401868 0.147095 0.0048344)
(-0.0182704 0.183598 0.00257002)
(-0.0185819 0.194972 0.00358475)
(-0.0275196 0.206406 -3.39306e-05)
(-0.0285426 0.213662 0.00237018)
(-0.0293254 0.224372 0.00371838)
(-0.0304288 0.236275 0.00496898)
(-0.0320593 0.247368 0.00452735)
(-0.034425 0.257754 0.00448692)
(-0.0384879 0.264709 0.00346023)
(-0.0349162 0.265093 0.00718919)
(-0.0402213 0.276266 0.00455985)
(-0.0483707 0.293763 0.00272344)
(-0.0484463 0.304235 0.00383841)
(-0.0579419 0.343826 0.00211238)
(-0.0605976 0.356904 0.00208093)
(-0.0681021 0.374722 0.00120447)
(-0.0684851 0.383518 0.00174411)
(-0.0882314 0.454102 0.00217681)
(-0.09134 0.466792 0.00195637)
(-0.0982537 0.49393 0.00214382)
(-0.101465 0.506874 0.0019793)
(-0.108229 0.533853 0.00255948)
(-0.109506 0.545231 0.00383601)
(-0.116801 0.585745 0.00217197)
(-0.0225179 0.585206 0.00613761)
(-0.0990623 0.591801 0.00509766)
(-0.088308 0.591948 0.00520635)
(-0.0777931 0.591756 0.00522516)
(-0.0675843 0.591629 0.00525182)
(-0.0209884 0.590558 -0.00348982)
(-0.0947923 -0.589835 0.00909194)
(-0.104094 -0.589721 0.00807245)
(-0.0848164 -0.589675 0.00948522)
(-0.0746489 -0.589631 0.00964941)
(-0.0645467 -0.58966 0.00977316)
(-0.0544201 -0.589643 0.00993387)
(-0.0442348 -0.589584 0.00986346)
(-0.0345394 -0.589604 0.00909597)
(-0.0277973 -0.589545 0.00817308)
(-0.00273704 0.127209 0.0146006)
(0.14409 0.128737 0.0108103)
(0.137759 0.135193 0.00676818)
(-0.101706 0.586175 0.00978931)
(0.0740383 -0.130392 -0.043246)
(0.0805453 -0.131252 -0.0452834)
(0.0709695 -0.128553 -0.0428439)
(0.0653353 -0.127732 -0.0427924)
(0.0716024 -0.124926 -0.0465154)
(0.0799272 -0.123516 -0.0489038)
(0.0885291 -0.124565 -0.0487915)
(0.098661 -0.124782 -0.0489598)
(0.108839 -0.124709 -0.0487575)
(0.118965 -0.123981 -0.0481431)
(0.0736522 0.129688 -0.0438195)
(0.0828321 0.129417 -0.0473408)
(0.0371752 0.128138 -0.0325889)
(0.0437173 0.128881 -0.0365484)
(0.0555597 0.128443 -0.0396929)
(0.0638686 0.127147 -0.0413695)
(0.15302 0.1226 -0.0322531)
(0.141174 0.123192 -0.0415679)
(0.14264 -0.130082 -0.0342392)
(0.151879 -0.131098 -0.0222248)
(0.00503984 0.12897 -0.0238493)
(0.0129204 0.129275 -0.0280654)
(0.0256344 0.129117 -0.0304169)
(0.0333124 0.129438 -0.0309195)
(-0.0681532 0.583163 -0.0301515)
(-0.00402336 -0.135865 -0.0149301)
(0.00413233 -0.13643 -0.0209132)
(-0.0110551 -0.129518 -0.0142665)
(-0.000563745 -0.13055 -0.024256)
(0.155313 -0.131228 -0.00934622)
(-0.00611424 0.130394 -0.0101583)
(-0.000574187 0.130701 -0.0187499)
(0.000469095 0.124734 -0.0262229)
(-0.00999006 0.124792 -0.0159114)
(-0.00906988 -0.133725 -0.00979354)
(0.149908 -0.134845 -0.0156286)
(0.150462 -0.134796 -0.00607536)
(-0.0072335 -0.130169 0.00891115)
(0.14462 0.128249 0.00758178)
(0.151741 0.127562 0.00783411)
(-0.0119216 0.16698 0.00491525)
(-0.0817726 0.447208 0.00536127)
(-0.11196 0.557585 0.00550066)
(0.0126794 -0.134844 0.0144311)
(0.00239646 -0.133698 0.0121584)
(0.0222326 -0.135253 0.0153049)
(0.0359674 -0.133962 0.017775)
(0.0305064 -0.13667 0.0157311)
(0.0425689 -0.133467 0.0212672)
(0.0525516 -0.134644 0.0230583)
(0.0620858 -0.134791 0.0236872)
(0.0720663 -0.134571 0.0238776)
(0.0822197 -0.134449 0.0240393)
(0.0923376 -0.134385 0.0242923)
(0.102452 -0.134329 0.024364)
(0.112223 -0.134659 0.0232938)
(0.119348 -0.136091 0.0199404)
(0.0422055 0.128678 0.0222995)
(0.031597 0.128988 0.0201708)
(0.0518725 0.128724 0.0229126)
(0.0618377 0.128915 0.0232486)
(0.0719665 0.129186 0.0236402)
(0.0821264 0.129507 0.0239366)
(0.092263 0.129678 0.023916)
(0.102108 0.129359 0.0235287)
(0.128362 0.127475 0.0212549)
(0.119795 0.12735 0.0228577)
)

// edges

304
(
(47 48)
(49 50)
(48 51)
(51 52)
(53 0)
(0 54)
(55 56)
(56 57)
(57 58)
(58 47)
(59 60)
(61 62)
(1 63)
(64 1)
(65 66)
(66 67)
(54 68)
(69 70)
(71 72)
(73 33)
(2 74)
(75 55)
(2 76)
(3 77)
(4 78)
(79 80)
(34 81)
(81 82)
(83 84)
(85 86)
(87 88)
(5 6)
(89 90)
(91 92)
(93 94)
(8 9)
(7 8)
(95 9)
(9 2)
(96 7)
(8 97)
(97 98)
(98 99)
(100 101)
(102 100)
(99 103)
(104 3)
(105 106)
(107 108)
(109 110)
(110 111)
(112 4)
(113 10)
(10 114)
(114 115)
(116 117)
(115 118)
(119 116)
(11 119)
(118 11)
(11 120)
(120 121)
(121 122)
(123 124)
(122 125)
(126 123)
(12 126)
(125 12)
(12 127)
(128 129)
(130 128)
(127 131)
(131 132)
(133 134)
(135 136)
(132 137)
(138 135)
(139 138)
(137 140)
(140 141)
(141 142)
(143 144)
(142 145)
(146 143)
(147 148)
(149 147)
(150 146)
(150 35)
(35 151)
(151 152)
(152 153)
(154 155)
(156 157)
(158 159)
(160 161)
(162 163)
(164 162)
(165 166)
(166 167)
(167 168)
(169 170)
(171 169)
(168 172)
(13 173)
(174 13)
(174 175)
(175 176)
(177 178)
(179 180)
(181 179)
(182 183)
(184 185)
(186 187)
(188 189)
(189 36)
(190 191)
(37 192)
(193 38)
(194 195)
(14 15)
(38 14)
(195 86)
(15 196)
(196 197)
(197 39)
(198 16)
(39 198)
(16 199)
(199 200)
(200 201)
(202 203)
(204 205)
(206 40)
(40 207)
(208 209)
(209 210)
(210 211)
(212 213)
(211 212)
(213 214)
(214 215)
(215 216)
(217 218)
(219 220)
(221 217)
(220 222)
(223 224)
(225 223)
(222 226)
(227 228)
(229 230)
(230 17)
(231 232)
(233 231)
(17 234)
(234 41)
(235 18)
(41 235)
(236 237)
(18 238)
(238 239)
(240 241)
(241 242)
(242 243)
(243 244)
(245 246)
(246 247)
(247 248)
(248 42)
(249 250)
(42 249)
(250 251)
(251 252)
(253 254)
(5 253)
(19 6)
(19 20)
(255 8)
(256 255)
(257 256)
(96 258)
(259 21)
(21 260)
(261 262)
(22 263)
(264 22)
(263 265)
(266 267)
(268 269)
(270 271)
(272 273)
(23 274)
(275 23)
(274 276)
(277 278)
(279 280)
(280 281)
(281 43)
(282 283)
(44 284)
(24 15)
(38 24)
(285 286)
(39 287)
(286 45)
(288 289)
(290 289)
(205 25)
(291 292)
(25 293)
(292 294)
(207 26)
(46 26)
(295 46)
(26 296)
(296 297)
(298 299)
(300 301)
(302 303)
(304 305)
(306 307)
(27 308)
(28 309)
(27 29)
(29 20)
(310 311)
(311 312)
(312 313)
(28 314)
(315 316)
(317 315)
(318 317)
(319 318)
(320 319)
(321 320)
(322 321)
(323 322)
(21 323)
(44 324)
(325 326)
(30 27)
(327 30)
(328 329)
(330 331)
(328 330)
(332 333)
(333 334)
(334 335)
(335 336)
(336 337)
(338 339)
(340 341)
(341 342)
(342 343)
(344 345)
(346 347)
(348 349)
(349 350)
(350 351)
(351 340)
(33 352)
(353 354)
(355 356)
(347 357)
(358 359)
(360 361)
(359 348)
(35 34)
(36 362)
(362 353)
(363 364)
(31 355)
(43 36)
(365 31)
(32 366)
(366 367)
(44 37)
(326 32)
(38 368)
(39 45)
(40 46)
(41 369)
(42 370)
(371 372)
(373 371)
(374 375)
(32 325)
(376 374)
(377 376)
(378 377)
(379 378)
(380 379)
(381 380)
(382 381)
(383 382)
(384 383)
(385 386)
(387 385)
(388 387)
(389 388)
(390 389)
(391 390)
(392 391)
(393 394)
)

// concaveStart mixedStart nonFeatureStart
31 33 47
// internalStart flatStart openStart multipleStart
242 304 304 304
// normals

576
(
(-0.196519 -0.811814 -0.549852)
(-0.339355 -0.0512316 -0.939262)
(-0.0857484 -0.809369 -0.581007)
(-0.0425529 -0.995923 -0.0795369)
(-0.0254245 -0.862835 -0.504846)
(-0.0591959 -0.115416 -0.991552)
(-0.0222592 -0.792521 -0.609438)
(0.0474404 -0.198691 -0.978913)
(-0.0996696 0.152112 -0.983325)
(-0.0105734 0.676896 -0.736003)
(0.266519 0.109067 -0.957639)
(0.0470487 0.669909 -0.740951)
(-0.152023 -0.825478 -0.543576)
(-0.348978 -0.219151 -0.911146)
(-0.0850177 -0.842846 -0.531397)
(-0.182977 -0.144583 -0.972428)
(-0.183881 -0.841482 -0.508031)
(-0.255343 -0.156716 -0.954065)
(-0.255504 -0.828555 -0.498212)
(-0.493199 0.0803168 -0.866201)
(0.25002 -0.783704 -0.568593)
(0.333596 -0.351057 -0.874913)
(0.349229 -0.71651 -0.603864)
(0.0851879 -0.98575 -0.145053)
(0.542655 -0.684786 -0.486409)
(0.917673 -0.362271 -0.163205)
(0.676011 -0.195 -0.710622)
(-0.207613 0.269496 -0.940356)
(-0.251467 0.752432 -0.608778)
(-0.161632 0.263954 -0.950896)
(0.00449588 0.737325 -0.675523)
(0.510547 0.0961435 -0.854458)
(0.311573 0.763619 -0.565515)
(0.670602 0.231016 -0.704929)
(0.857576 0.45038 -0.248439)
(-0.153091 0.694674 -0.702846)
(-0.0394917 0.961963 -0.270311)
(-0.124418 0.730417 -0.671573)
(-0.0205659 0.974139 -0.225013)
(-0.385793 -0.60475 -0.696736)
(-0.62305 0.0264462 -0.781734)
(-0.260284 -0.854599 -0.449347)
(-0.520988 -0.0887153 -0.848941)
(-0.925199 0.250592 -0.284974)
(-0.719407 0.196153 -0.666316)
(-0.957246 0.27356 -0.0940537)
(-0.672004 0.257579 -0.694308)
(-0.919039 0.371924 -0.130541)
(-0.631899 0.196537 -0.749718)
(-0.897196 0.306153 -0.318292)
(-0.683256 0.155091 -0.713518)
(-0.941869 0.246642 -0.228143)
(-0.775207 0.0861494 -0.625805)
(-0.984025 0.11782 -0.133464)
(-0.668321 0.18326 -0.720946)
(-0.941362 0.268219 -0.204687)
(0.836591 0.546913 -0.03166)
(0.564663 0.653366 0.504251)
(0.837218 0.44504 -0.317813)
(0.794311 0.57568 0.194071)
(-0.615536 0.233597 -0.752694)
(-0.974969 0.0110721 -0.222063)
(-0.542198 0.098954 -0.834404)
(-0.390611 0.658073 -0.64371)
(-0.376462 0.642019 -0.667898)
(-0.160213 0.969264 -0.186706)
(0.271814 0.905272 -0.326497)
(0.697619 0.711006 -0.0883094)
(-0.178575 -0.973445 -0.143232)
(-0.786212 0.0784436 -0.612958)
(-0.104024 -0.70202 0.704519)
(-0.230939 -0.342844 -0.910563)
(-0.0554077 -0.969404 -0.239136)
(-0.731628 0.141081 -0.666946)
(0.0853593 -0.996348 -0.0021692)
(-0.31388 -0.666047 0.676654)
(-0.719653 0.387245 0.576317)
(-0.723909 0.472172 -0.503)
(-0.756456 0.240354 0.60828)
(-0.929534 0.185294 -0.318799)
(-0.899905 0.208287 0.383129)
(0.839899 -0.540336 -0.0510468)
(0.688056 -0.429895 0.584611)
(0.924858 -0.380015 -0.0150749)
(0.850545 -0.223641 0.475981)
(-0.947564 0.153819 -0.280111)
(-0.932513 0.18152 0.312203)
(-0.673235 0.329831 -0.66179)
(-0.55546 0.766913 -0.321416)
(-0.785349 0.508287 -0.353371)
(-0.839538 0.362425 0.404753)
(0.867509 -0.497043 0.0193854)
(0.721914 -0.404283 0.5616)
(-0.97891 0.0504404 -0.197968)
(-0.940588 0.0814843 0.329627)
(-0.959832 0.131492 -0.247854)
(-0.929114 0.151009 0.337555)
(-0.638615 0.377052 -0.670822)
(-0.492597 0.816738 -0.300477)
(-0.750049 0.559933 -0.351997)
(-0.796392 0.424174 0.431088)
(-0.968224 0.126051 -0.215996)
(-0.899787 0.21656 0.378796)
(-0.975985 0.0359031 -0.214858)
(-0.870928 0.0632521 0.487322)
(-0.976711 0.0336552 -0.211903)
(-0.681114 0.108507 -0.724093)
(-0.968955 -0.0308169 -0.24531)
(-0.834105 0.0738742 0.546636)
(-0.930497 0.0664965 -0.360212)
(-0.572796 0.159962 -0.803938)
(-0.889572 0.424456 -0.168813)
(-0.538478 0.595266 -0.596405)
(-0.828135 0.431377 0.357919)
(-0.594349 0.523669 -0.610345)
(-0.832904 0.423916 0.355761)
(-0.907729 0.224718 -0.354303)
(-0.883114 0.23687 0.404972)
(-0.969759 0.0634642 -0.235667)
(-0.864089 0.0651467 0.499105)
(-0.979963 0.0333914 -0.196359)
(-0.692284 0.110238 -0.713156)
(-0.972855 -0.0333156 -0.229005)
(-0.830754 0.0682542 0.55244)
(-0.939476 0.0592019 -0.337461)
(-0.583317 0.158385 -0.796653)
(-0.893214 0.42291 -0.152697)
(-0.53676 0.602931 -0.590222)
(-0.826895 0.431019 0.361202)
(-0.592123 0.534663 -0.602932)
(-0.827903 0.429429 0.360787)
(0.867616 -0.497203 -0.00563785)
(0.667475 -0.387815 0.63567)
(0.914149 -0.405272 0.00922503)
(0.793043 -0.218447 0.56865)
(-0.907189 0.228993 -0.352944)
(-0.882038 0.241748 0.404433)
(-0.967772 0.051932 -0.246417)
(-0.850786 0.0564514 0.522471)
(-0.965315 0.0582025 -0.254519)
(-0.688505 0.11415 -0.716192)
(0.962668 -0.238093 0.128768)
(0.766558 -0.193692 0.612268)
(-0.94841 -0.0490642 -0.313228)
(-0.788102 0.0238108 0.615084)
(0.873178 -0.486903 -0.0220391)
(0.687332 -0.383631 0.616767)
(0.91253 -0.408843 -0.0116957)
(0.802331 -0.227304 0.551904)
(-0.869251 0.321219 -0.375793)
(-0.80387 0.128729 0.580708)
(-0.675586 0.569424 -0.468337)
(-0.520727 0.46514 0.715883)
(-0.878942 0.255017 -0.403022)
(-0.820048 0.264333 0.507591)
(-0.967392 0.107438 -0.229367)
(-0.684047 0.167396 -0.70997)
(-0.963579 0.0440564 -0.263769)
(-0.843404 0.138059 0.51924)
(-0.950974 0.0764788 -0.299667)
(-0.653592 0.171511 -0.737158)
(0.864747 -0.478356 0.152932)
(0.638358 -0.359673 0.68054)
(0.902936 -0.404934 0.143996)
(0.769734 -0.190632 0.609236)
(-0.902432 0.40768 -0.139329)
(-0.562623 0.596881 -0.572003)
(-0.64528 0.500574 -0.577096)
(-0.842242 0.398173 0.363438)
(-0.949484 0.199254 -0.24244)
(-0.859941 0.217098 0.46192)
(-0.985735 0.0930647 -0.140232)
(-0.847096 0.0854507 0.524525)
(-0.983257 0.0372343 -0.17838)
(-0.869888 0.0814966 0.48647)
(-0.951792 0.137887 -0.274006)
(-0.655173 0.29189 -0.696814)
(-0.676446 0.549047 -0.490885)
(-0.891192 0.281329 0.355853)
(0.954222 -0.225525 0.196464)
(0.700651 -0.288292 0.652668)
(-0.961983 0.11131 -0.249397)
(-0.921374 0.270167 0.279426)
(0.874134 -0.485181 -0.0220983)
(0.696473 -0.392777 0.600543)
(0.906677 -0.421635 -0.0126677)
(0.818202 -0.244171 0.520506)
(-0.634614 0.62723 -0.451494)
(-0.85505 0.467544 0.224259)
(-0.909795 0.28781 -0.299062)
(-0.924923 0.237538 0.296804)
(-0.973003 0.023409 -0.229602)
(-0.933073 0.121438 0.338566)
(0.885246 -0.464005 -0.0322361)
(0.717144 -0.36271 0.595101)
(0.909825 -0.414267 -0.0245199)
(0.819374 -0.231606 0.524389)
(-0.968747 -0.01228 -0.247747)
(-0.905181 0.0911053 0.415147)
(-0.690962 0.133135 -0.710525)
(-0.55559 0.703034 -0.443918)
(-0.918396 0.390359 -0.064572)
(-0.624746 0.627691 -0.464431)
(-0.840495 0.392941 0.37305)
(-0.919416 0.300875 -0.253274)
(-0.92466 0.260655 0.277604)
(-0.73424 0.520237 -0.43617)
(-0.927323 0.308981 0.211192)
(0.899309 -0.42949 0.0823484)
(0.67254 -0.315739 0.669327)
(0.953428 -0.282888 0.104644)
(0.76154 -0.148048 0.630983)
(-0.965841 0.101299 -0.238517)
(-0.921618 0.252336 0.294869)
(0.890328 -0.4372 0.127169)
(0.663523 -0.361408 0.655074)
(-0.738126 0.524795 -0.423981)
(-0.91678 0.338611 0.211795)
(-0.976406 0.0409793 -0.21202)
(-0.918737 0.108928 0.37955)
(-0.906208 -0.205434 -0.369573)
(-0.962494 -0.0021598 0.271295)
(0.801219 0.597707 -0.0281884)
(0.521659 0.616846 0.589384)
(-0.977127 -0.205544 -0.0545465)
(-0.76352 -0.291107 0.57645)
(-0.8986 -0.390686 -0.199705)
(-0.899498 -0.204162 0.386291)
(0.694465 0.231711 0.681196)
(0.967297 0.0889869 0.237523)
(-0.883486 -0.225647 -0.410532)
(-0.853539 -0.500891 0.143456)
(-0.608816 -0.558565 -0.563337)
(-0.76237 -0.626649 0.161566)
(0.64505 0.558158 0.521891)
(0.946422 0.290394 0.141269)
(-0.933838 -0.0112681 -0.357518)
(-0.907311 0.0170163 0.420116)
(-0.930489 -0.000535885 -0.366319)
(-0.925603 0.0155042 0.378178)
(-0.895002 -0.212763 -0.392051)
(-0.900349 -0.130651 0.415093)
(-0.879481 -0.295291 -0.373251)
(-0.825163 -0.544287 0.151185)
(-0.64509 -0.551213 -0.529172)
(-0.777636 -0.607978 0.160139)
(-0.933596 -0.114828 -0.339429)
(-0.912954 -0.0604813 0.403556)
(-0.937954 -0.117792 -0.32614)
(-0.959895 -0.0264856 0.279107)
(-0.975621 -0.10734 -0.19142)
(-0.913455 -0.240245 0.328454)
(0.903494 0.416585 0.100776)
(0.752029 0.293494 0.590181)
(-0.938652 -0.313254 -0.144235)
(-0.666496 -0.523737 0.530549)
(-0.929423 -0.274368 -0.24677)
(-0.895804 -0.300247 0.327699)
(-0.865673 -0.388107 -0.316202)
(-0.519576 -0.617791 0.590233)
(-0.931179 -0.108212 -0.348132)
(-0.942347 0.00698793 0.334565)
(-0.944708 -0.144133 -0.294539)
(-0.955016 -0.0298252 0.295049)
(-0.912567 -0.231277 -0.337242)
(-0.893489 -0.315226 0.319858)
(-0.942681 -0.147152 -0.299497)
(-0.826418 -0.291403 0.481786)
(-0.692148 -0.444521 -0.568623)
(-0.689752 -0.571397 0.444689)
(-0.947735 -0.106926 -0.300609)
(-0.872512 0.034299 0.487387)
(-0.947059 -0.130592 -0.293301)
(-0.930447 0.0130027 0.366197)
(-0.861178 -0.2628 -0.435095)
(-0.914011 -0.264503 0.307606)
(0.934196 0.34809 0.0781739)
(0.772727 0.188291 0.606168)
(-0.914775 -0.380916 -0.134501)
(-0.798392 -0.325749 0.506417)
(0.948615 0.303022 0.0911392)
(0.760825 0.258989 0.595038)
(-0.948872 -0.27055 -0.162616)
(-0.925073 -0.0570444 0.375482)
(-0.952321 -0.282357 -0.115583)
(-0.653899 -0.412982 -0.633926)
(-0.966571 -0.0958028 -0.23783)
(-0.678165 -0.23418 -0.6966)
(-0.985855 -0.135633 -0.0984587)
(-0.866523 -0.204701 0.455232)
(0.916278 0.391783 0.0833044)
(0.76713 0.26435 0.584491)
(-0.938425 -0.317717 -0.1357)
(-0.854794 -0.308934 0.416998)
(-0.960999 -0.227985 -0.15654)
(-0.88303 -0.00924285 0.469226)
(-0.964077 -0.240529 -0.112699)
(-0.649867 -0.358626 -0.67012)
(-0.972576 -0.0683912 -0.222302)
(-0.669366 -0.216174 -0.710787)
(-0.991386 -0.115892 -0.0610122)
(-0.862735 -0.220224 0.455181)
(-0.970157 -0.237748 -0.0476477)
(-0.862837 -0.135238 0.487056)
(-0.940107 -0.199692 -0.276266)
(-0.875574 -0.300731 0.378062)
(-0.78181 -0.423019 -0.458069)
(-0.70684 -0.576566 0.409816)
(0.851859 0.505952 0.135462)
(0.736624 0.270254 0.619957)
(-0.931588 -0.246066 -0.267573)
(-0.930523 -0.00922377 0.366118)
(-0.867341 -0.295377 -0.400589)
(-0.920598 -0.267697 0.284321)
(-0.917087 -0.297435 -0.265487)
(-0.845112 -0.337404 0.414661)
(-0.947925 -0.15826 -0.27639)
(-0.864031 -0.00489444 0.503415)
(-0.933698 -0.171976 -0.314058)
(-0.931786 -0.0169643 0.362611)
(-0.860235 -0.272915 -0.430712)
(-0.919961 -0.274236 0.280117)
(-0.915092 -0.307315 -0.261083)
(-0.85611 -0.343606 0.386019)
(-0.949955 -0.153565 -0.272034)
(-0.880575 -0.00828728 0.473835)
(-0.950617 -0.120373 -0.286072)
(-0.938207 -0.00516912 0.346036)
(-0.902834 -0.215776 -0.37193)
(-0.868575 -0.319765 0.378587)
(-0.90007 -0.175025 -0.39905)
(-0.854615 -0.354362 0.379554)
(-0.583363 -0.470513 -0.662046)
(-0.637211 -0.652403 0.410283)
(-0.908846 -0.114183 -0.401199)
(-0.909742 0.00312756 0.415163)
(-0.961477 -0.0833501 -0.261944)
(-0.94507 0.0503584 0.322966)
(-0.98306 -0.140887 -0.117231)
(-0.658777 -0.227866 -0.717001)
(-0.976801 0.0489849 -0.20847)
(-0.652685 -0.111708 -0.749349)
(-0.989694 0.143179 -0.0023405)
(-0.678482 0.697506 -0.230535)
(-0.579233 0.814862 -0.0220887)
(-0.718012 0.504565 0.479451)
(-0.328584 -0.778472 0.534803)
(-0.587855 -0.133351 0.7979)
(-0.147048 -0.74943 0.645548)
(-0.456248 -0.142847 0.878312)
(-0.347901 -0.624161 0.699563)
(-0.092775 -0.97383 0.20748)
(0.376278 -0.919786 0.111391)
(0.714613 -0.328846 0.617405)
(0.0763599 -0.835465 0.544213)
(-0.867992 -0.0626219 0.492614)
(-0.495148 -0.035729 0.868074)
(-0.95257 0.170416 0.252128)
(-0.635699 0.265814 0.724727)
(-0.937463 0.228239 0.262813)
(-0.684343 -0.00322544 0.729153)
(-0.936696 0.310243 0.162327)
(-0.623272 0.446277 0.64216)
(-0.940736 0.135149 0.311047)
(-0.643201 0.185484 0.742892)
(-0.895447 0.297722 0.330962)
(-0.638978 0.0917151 0.763738)
(-0.937476 0.240502 0.25159)
(-0.651774 0.355586 0.669887)
(-0.915205 0.127217 0.382382)
(-0.542125 0.0782013 0.836651)
(-0.940809 0.178262 0.288274)
(-0.636974 0.270485 0.721874)
(-0.919906 0.250603 0.301613)
(-0.687936 0.0453959 0.72435)
(-0.934295 0.277728 0.223516)
(-0.632139 0.384811 0.672548)
(-0.910133 0.14004 0.389931)
(-0.540762 0.0893374 0.836418)
(-0.928218 0.123729 0.350861)
(-0.620136 0.180709 0.763397)
(-0.928409 0.126633 0.349314)
(-0.616494 0.153122 0.772327)
(-0.946251 -0.0418584 0.320712)
(-0.633315 0.0137452 0.773772)
(0.413256 -0.713652 0.565614)
(0.755462 -0.645184 0.114081)
(-0.918317 -0.122438 0.376434)
(-0.516354 0.168386 0.839658)
(-0.781756 -0.222172 0.582664)
(-0.427447 -0.632673 0.645766)
(-0.941175 -0.0555138 0.333329)
(-0.583888 -0.087992 0.807051)
(-0.44135 -0.628977 0.639999)
(-0.902261 -0.261024 0.343207)
(-0.562837 -0.229815 0.793977)
(-0.923062 -0.113723 0.367454)
(-0.60116 -0.142914 0.786246)
(-0.713433 -0.138309 0.686938)
(-0.965846 -0.113982 0.2327)
(-0.914441 -0.373209 0.156568)
(-0.543841 -0.668381 0.507449)
(-0.948246 -0.21508 0.233601)
(-0.543296 -0.120517 0.830846)
(-0.939912 -0.151863 0.305784)
(-0.612465 -0.24693 0.750941)
(-0.674858 -0.294337 0.676707)
(-0.200655 -0.350299 0.914892)
(-0.912433 -0.385816 0.136428)
(-0.402818 -0.734677 0.545882)
(-0.542768 -0.141571 0.827865)
(-0.895289 -0.304388 0.325278)
(-0.53619 -0.176241 0.825493)
(-0.926124 -0.0370859 0.375391)
(-0.951535 -0.0393447 0.305014)
(-0.653363 -0.0848131 0.752279)
(-0.95373 -0.193116 0.230446)
(-0.580675 -0.115978 0.805833)
(-0.926117 -0.0631426 0.371914)
(-0.596316 -0.0749989 0.799239)
(-0.945195 -0.22747 0.234229)
(-0.602018 -0.133799 0.787193)
(-0.945185 -0.231567 0.230221)
(-0.589596 -0.136155 0.796139)
(-0.956159 -0.136388 0.259148)
(-0.63177 -0.156092 0.759277)
(-0.758237 0.149674 0.634566)
(-0.570027 0.751447 0.332261)