/*--------------------------------*- C++ -*----------------------------------*\
  =========                 |
  \\      /  F ield         | OpenFOAM: The Open Source CFD Toolbox
   \\    /   O peration     | Website:  https://openfoam.org
    \\  /    A nd           | Version:  12
     \\/     M anipulation  |
\*---------------------------------------------------------------------------*/
FoamFile
{
    format      ascii;
    class       extendedFeatureEdgeMesh;
    location    "constant/extendedFeatureEdgeMesh";
    object      aircraftModel.extendedFeatureEdgeMesh;
}
// * * * * * * * * * * * * * * * * * * * * * * * * * * * * * * * * * * * * * //

// points

316
(
(0.367374 -0.403291 0.00130432)
(0.391452 -0.237798 -0.000182716)
(0.377973 0.366811 0.000734499)
(0.368853 0.401091 0.000814449)
(0.364814 0.403578 -0.000991021)
(0.290041 -0.401645 0.00654508)
(0.286439 -0.397427 0.00796581)
(0.308897 -0.403727 0.0099549)
(0.369906 -0.400602 0.00464787)
(0.282158 -0.350041 0.00657572)
(0.386509 -0.31095 0.00567331)
(0.387209 -0.306775 0.00553374)
(0.387448 -0.308555 0.00724032)
(0.272905 -0.270214 0.00633774)
(0.263455 -0.19911 0.00615788)
(0.256632 -0.186326 0.00839764)
(0.397401 0.232707 0.00878412)
(0.286421 0.399267 0.00658861)
(0.290484 0.402095 0.00584925)
(0.289563 0.402704 0.00793475)
(0.286904 0.39835 0.00867129)
(0.349692 -0.182851 -0.0031899)
(0.344275 -0.179053 -0.00268182)
(0.358503 0.192893 -0.000337841)
(0.347787 -0.18124 -0.0100631)
(0.39692 0.186468 -0.0102243)
(0.383823 -0.308288 0.00158064)
(0.358473 -0.188209 -0.00515362)
(0.402027 -0.188309 -0.000762297)
(0.255321 -0.179553 -0.000202569)
(0.40235 0.189996 0.000335469)
(0.408704 0.184184 -0.00245246)
(0.393421 0.233271 -0.000469339)
(0.386109 -0.298663 0.0065685)
(0.254498 -0.182143 0.00539531)
(0.248528 -0.178445 0.00794189)
(0.268911 0.191903 0.00349513)
(0.264212 0.191445 0.00926801)
(0.39378 0.238255 0.00801269)
(0.615031 -0.174899 -0.0218203)
(0.610818 -0.178672 -0.0198722)
(0.360496 -0.405348 0.00113111)
(0.349345 -0.405122 0.00186135)
(0.365359 -0.400979 -0.00205678)
(0.372176 -0.387508 0.000388191)
(0.370141 -0.397209 0.000298687)
(0.369449 -0.379989 -0.00295943)
(0.36611 -0.392987 -0.00321671)
(0.374305 -0.380471 0.000546887)
(0.376839 -0.374102 0.00126708)
(0.37475 -0.370104 -0.00251396)
(0.379596 -0.356515 0.000598322)
(0.378947 -0.365543 0.000592889)
(0.375506 -0.351998 -0.00288901)
(0.374973 -0.361837 -0.00280552)
(0.380082 -0.346643 0.000524758)
(0.380579 -0.336702 0.000449895)
(0.380855 -0.326619 0.000289003)
(0.3806 -0.317594 -0.000402189)
(0.384936 -0.300387 0.000797928)
(0.386923 -0.293934 0.0012199)
(0.389018 -0.286929 0.000845063)
(0.388633 -0.282013 -0.000559775)
(0.385258 -0.252446 -0.00295714)
(0.384714 -0.260906 -0.00326677)
(0.390885 -0.246637 0.000863031)
(0.39024 -0.25935 0.00127774)
(0.38609 -0.241993 -0.00318772)
(0.394824 -0.232097 0.00125253)
(0.398856 -0.212548 -0.000327585)
(0.399288 -0.220406 0.00186233)
(0.409605 -0.181117 -0.00588863)
(0.395715 0.193624 -0.00447525)
(0.399598 0.197253 -0.000644807)
(0.395755 0.208993 -0.00276074)
(0.395827 0.20257 -0.00268899)
(0.396351 0.214023 -0.00231443)
(0.3937 0.222104 -0.00269568)
(0.397989 0.227558 0.000748127)
(0.399632 0.219027 0.00159639)
(0.391406 0.243517 0.000645676)
(0.390723 0.253562 0.000836453)
(0.390687 0.261964 0.00119129)
(0.389167 0.267519 -0.000589462)
(0.385627 0.278996 -0.00293001)
(0.385592 0.272421 -0.00280059)
(0.386193 0.283873 -0.00225057)
(0.38806 0.297263 0.00051969)
(0.389168 0.288844 0.00166926)
(0.381236 0.323938 0.000564514)
(0.382495 0.313957 -3.77604e-05)
(0.380485 0.333645 0.000759204)
(0.380058 0.343489 0.000662013)
(0.375316 0.348206 -0.00286417)
(0.375364 0.337721 -0.0028929)
(0.379635 0.353331 0.00067171)
(0.379471 0.361139 0.00138763)
(0.371796 0.384071 0.000305246)
(0.373821 0.372846 -0.000686635)
(0.370611 0.394089 0.000748302)
(0.352924 0.400884 -0.00202957)
(0.360645 0.401587 -0.00306621)
(0.350182 0.406798 0.00330073)
(0.358703 0.405437 0.000871345)
(0.288375 -0.396339 0.00510075)
(0.297622 -0.403015 0.00730062)
(0.320122 -0.405956 0.00945941)
(0.306727 -0.39979 0.00403278)
(0.317593 -0.399949 0.00430453)
(0.33022 -0.406785 0.00927573)
(0.340583 -0.40776 0.00872791)
(0.347591 -0.408703 0.00825607)
(0.355029 -0.407249 0.00769687)
(0.364537 -0.404581 0.0063928)
(0.285204 -0.389646 0.00777547)
(0.288078 -0.386674 0.00445291)
(0.371749 -0.392933 0.00598734)
(0.285017 -0.379348 0.00771376)
(0.288151 -0.376152 0.00440328)
(0.37455 -0.3805 0.00658391)
(0.284912 -0.369181 0.00779508)
(0.2881 -0.366096 0.00447023)
(0.378074 -0.373232 0.0056846)
(0.379394 -0.368867 0.00459902)
(0.284172 -0.359304 0.00757993)
(0.379804 -0.361894 0.00551679)
(0.380059 -0.352367 0.00586872)
(0.279308 -0.343438 0.00840751)
(0.277349 -0.336629 0.00846082)
(0.280268 -0.338718 0.00542026)
(0.380478 -0.342239 0.00614101)
(0.276603 -0.329108 0.00774804)
(0.381442 -0.331489 0.00623492)
(0.276323 -0.319008 0.00764083)
(0.279114 -0.315904 0.00471625)
(0.279225 -0.326413 0.0049062)
(0.38322 -0.318649 0.0058886)
(0.276261 -0.308924 0.0076877)
(0.279131 -0.305849 0.00458683)
(0.276126 -0.299046 0.00763126)
(0.279093 -0.295951 0.00448609)
(0.386379 -0.304971 0.00850068)
(0.275773 -0.289496 0.0074332)
(0.278947 -0.286136 0.00437402)
(0.388349 -0.292722 0.00545481)
(0.389451 -0.288789 0.00425981)
(0.275159 -0.279743 0.0072696)
(0.278374 -0.276401 0.00400911)
(0.389318 -0.277589 -6.68269e-05)
(0.390106 -0.28007 0.00413702)
(0.389305 -0.271125 0.000210453)
(0.39095 -0.268781 0.00660211)
(0.269645 -0.263653 0.00836647)
(0.266952 -0.25671 0.0083384)
(0.270137 -0.258744 0.00507461)
(0.39174 -0.260259 0.00842519)
(0.266128 -0.249118 0.00761381)
(0.392172 -0.251086 0.00739811)
(0.266138 -0.239003 0.00766569)
(0.268992 -0.235928 0.00499069)
(0.26893 -0.246406 0.00479508)
(0.393616 -0.238015 0.00762065)
(0.266459 -0.229028 0.00792131)
(0.269267 -0.226001 0.00516545)
(0.397545 -0.230924 0.00546239)
(0.399615 -0.226056 0.00558632)
(0.266585 -0.219278 0.00798438)
(0.269481 -0.2161 0.0050837)
(0.400245 -0.220519 0.00723888)
(0.265826 -0.209118 0.00762946)
(0.269337 -0.205824 0.00436119)
(0.399687 -0.207536 5.15e-05)
(0.400641 -0.21033 0.00492374)
(0.399684 -0.200827 0.000186571)
(0.25958 -0.19238 0.00831372)
(0.260148 -0.188431 0.00369971)
(0.257256 -0.18239 0.00160074)
(0.266708 0.200671 0.0082849)
(0.269551 0.203743 0.00521511)
(0.39985 0.201864 6.06257e-05)
(0.266481 0.210857 0.00797457)
(0.269021 0.214014 0.00504992)
(0.399546 0.208244 0.000198623)
(0.400732 0.210968 0.00661887)
(0.401044 0.19934 0.00525319)
(0.266185 0.220866 0.00774795)
(0.268864 0.223916 0.00488223)
(0.266125 0.230892 0.00770912)
(0.268863 0.233957 0.00489257)
(0.265961 0.241063 0.0077437)
(0.268749 0.244162 0.00484567)
(0.397538 0.232729 0.00401868)
(0.265817 0.250963 0.00743105)
(0.268681 0.253742 0.00459822)
(0.392303 0.248667 0.00706623)
(0.266136 0.258157 0.00655609)
(0.39178 0.258531 0.00669514)
(0.268748 0.264761 0.00671526)
(0.273021 0.271635 0.00892756)
(0.389439 0.272267 -8.68012e-05)
(0.275338 0.281207 0.00777163)
(0.278696 0.284151 0.0043971)
(0.27561 0.271574 0.00460633)
(0.389047 0.278428 0.000210879)
(0.390188 0.280883 0.00644694)
(0.390782 0.269802 0.00484422)
(0.276075 0.291071 0.00744671)
(0.279067 0.294116 0.00438852)
(0.389707 0.289488 0.00726251)
(0.276148 0.300877 0.0074038)
(0.278995 0.303884 0.00448914)
(0.388324 0.302479 0.00178666)
(0.389171 0.299267 0.00526707)
(0.276241 0.31087 0.00737511)
(0.279054 0.313926 0.00463263)
(0.387223 0.309164 0.00368176)
(0.387851 0.307919 0.00769011)
(0.276339 0.321027 0.00740121)
(0.279165 0.32412 0.00477686)
(0.384438 0.319275 0.00504974)
(0.386038 0.314488 0.00809976)
(0.276389 0.330876 0.00727879)
(0.382259 0.32888 0.00620631)
(0.276668 0.337971 0.00672131)
(0.381161 0.338869 0.00630147)
(0.278739 0.344498 0.00695813)
(0.282267 0.351545 0.00887059)
(0.380643 0.348442 0.00585017)
(0.284477 0.361091 0.00795998)
(0.287819 0.363852 0.00447827)
(0.285191 0.35129 0.00488757)
(0.380019 0.357441 0.00569632)
(0.285151 0.371209 0.00758047)
(0.2882 0.374318 0.00413913)
(0.377506 0.372305 0.00338958)
(0.285142 0.381709 0.00729329)
(0.288344 0.385231 0.00398133)
(0.374942 0.379421 0.00492321)
(0.28524 0.391954 0.00684394)
(0.372475 0.389323 0.0063184)
(0.297172 0.401241 0.00480822)
(0.307155 0.400855 0.00435335)
(0.370098 0.398751 0.00586909)
(0.296785 0.404019 0.00827861)
(0.307119 0.405058 0.00891363)
(0.317825 0.406445 0.00947648)
(0.328533 0.406937 0.00920685)
(0.340558 0.406704 0.00669221)
(0.348771 0.408673 0.00813267)
(0.357105 0.406579 0.00913714)
(0.300108 -0.400101 0.0114658)
(0.291524 -0.399138 0.00961369)
(0.306115 -0.400479 0.0133457)
(0.312174 -0.398593 0.0161748)
(0.316541 -0.405197 0.0144833)
(0.324504 -0.406384 0.0153603)
(0.334727 -0.406458 0.0155626)
(0.3475 -0.405443 0.0148754)
(0.384402 -0.309631 0.00997639)
(0.276825 -0.282069 0.0107903)
(0.27732 -0.269439 0.0121669)
(0.268725 -0.210486 0.011495)
(0.265658 -0.197932 0.0114278)
(0.398148 0.2241 0.0120705)
(0.398026 0.22972 0.0107892)
(0.287778 0.391281 0.00993157)
(0.314173 0.401481 0.0171678)
(0.305752 0.400502 0.0135819)
(0.317039 0.404884 0.0153552)
(0.327388 0.406629 0.0156001)
(0.33818 0.406838 0.0149372)
(0.34809 0.407332 0.0131934)
(-0.325747 -0.0258662 0.0580741)
(-0.330553 -0.019999 0.0602012)
(-0.332901 -0.0150264 0.0605039)
(-0.333808 -0.00814747 0.0598117)
(-0.333502 0.00836438 0.0635344)
(-0.331437 0.0140275 0.0655237)
(-0.327034 0.020831 0.0664253)
(0.393674 -0.189564 -0.0064892)
(0.346085 -0.179442 -0.00487366)
(0.354181 -0.187448 -0.00196324)
(0.267074 -0.179425 -0.00248706)
(0.277955 -0.17926 -0.00249314)
(0.288253 -0.179124 -0.00216056)
(0.298294 -0.179012 -0.00205784)
(0.308298 -0.178988 -0.00210816)
(0.318393 -0.178972 -0.0021685)
(0.328496 -0.178825 -0.00218341)
(0.33782 -0.178687 -0.00224209)
(0.263776 0.184999 -0.00350816)
(0.273911 0.185832 -0.00382408)
(0.284247 0.185667 -0.00409604)
(0.294281 0.185619 -0.00396688)
(0.304224 0.185637 -0.00390231)
(0.31418 0.185616 -0.00397413)
(0.324155 0.185572 -0.00402587)
(0.334268 0.185692 -0.00399936)
(0.36234 0.191675 -0.00221938)
(0.368844 0.192427 -0.0055827)
(0.380679 0.19193 -0.00775286)
(0.280529 0.191174 0.00135202)
(0.290965 0.191025 0.00123111)
(0.310921 0.191102 0.00123428)
(0.320895 0.191058 0.00103023)
(0.330976 0.191088 0.000971755)
(0.351257 0.192085 0.00035784)
(0.402606 0.189227 0.00967492)
(0.257598 -0.181359 0.0128705)
(0.405996 -0.181976 0.00566697)
(0.402903 -0.180603 0.0155696)
(0.25665 -0.176495 0.0192611)
(0.257627 0.183674 0.0129481)
(0.25798 0.18525 0.00365913)
(0.404177 0.183308 0.0146392)
(0.396567 0.181849 0.0223593)
)

// edges

280
(
(39 40)
(41 42)
(43 0)
(0 41)
(44 45)
(46 47)
(48 44)
(49 48)
(46 50)
(51 52)
(53 54)
(55 51)
(56 55)
(57 56)
(58 57)
(26 58)
(59 26)
(60 59)
(61 60)
(62 61)
(63 64)
(65 66)
(67 63)
(1 65)
(68 1)
(69 70)
(24 27)
(71 28)
(72 25)
(30 31)
(73 30)
(74 75)
(76 74)
(77 76)
(78 79)
(80 32)
(81 80)
(82 81)
(83 82)
(84 85)
(86 84)
(87 88)
(89 90)
(91 89)
(92 91)
(93 94)
(95 92)
(96 95)
(2 96)
(97 98)
(99 97)
(100 101)
(3 99)
(102 103)
(103 4)
(4 3)
(104 5)
(5 6)
(105 5)
(7 105)
(106 7)
(107 108)
(109 106)
(110 109)
(111 110)
(112 111)
(113 112)
(8 0)
(6 114)
(115 104)
(116 8)
(114 117)
(118 115)
(119 116)
(117 120)
(121 118)
(122 119)
(123 122)
(120 124)
(125 123)
(124 9)
(126 125)
(127 128)
(129 9)
(9 127)
(130 126)
(128 131)
(132 130)
(131 133)
(134 135)
(136 132)
(133 137)
(138 134)
(10 136)
(11 12)
(12 10)
(137 139)
(140 138)
(11 33)
(141 12)
(139 142)
(143 140)
(144 33)
(145 144)
(142 146)
(147 143)
(148 62)
(149 145)
(146 13)
(150 148)
(151 149)
(152 153)
(154 13)
(13 152)
(66 150)
(155 151)
(153 156)
(157 155)
(156 158)
(159 160)
(161 157)
(158 162)
(163 159)
(164 161)
(165 164)
(162 166)
(167 163)
(168 165)
(166 169)
(170 167)
(171 69)
(172 168)
(169 14)
(173 171)
(174 15)
(175 14)
(14 174)
(28 173)
(15 34)
(176 175)
(29 176)
(34 35)
(37 177)
(178 36)
(179 73)
(177 180)
(181 178)
(182 179)
(183 184)
(180 185)
(186 181)
(79 182)
(185 187)
(188 186)
(187 189)
(190 188)
(191 38)
(38 16)
(189 192)
(193 190)
(194 38)
(192 195)
(196 194)
(195 197)
(197 198)
(199 83)
(198 200)
(201 202)
(203 199)
(204 205)
(200 206)
(207 201)
(88 203)
(208 204)
(206 209)
(210 207)
(211 87)
(212 208)
(209 213)
(214 210)
(215 211)
(216 212)
(213 217)
(218 214)
(215 219)
(220 216)
(217 221)
(222 219)
(221 223)
(224 222)
(223 225)
(225 226)
(227 224)
(226 228)
(229 230)
(231 227)
(228 232)
(233 229)
(234 2)
(232 235)
(236 233)
(234 237)
(235 238)
(239 237)
(238 17)
(17 18)
(18 240)
(240 241)
(3 242)
(17 19)
(19 243)
(243 244)
(244 245)
(245 246)
(246 247)
(247 248)
(248 249)
(250 251)
(252 250)
(253 252)
(7 254)
(255 254)
(256 255)
(257 256)
(12 258)
(259 260)
(261 262)
(263 264)
(264 16)
(265 20)
(266 267)
(20 19)
(268 269)
(269 270)
(270 271)
(272 273)
(274 275)
(276 277)
(277 278)
(279 28)
(24 280)
(27 21)
(281 21)
(282 29)
(283 282)
(284 283)
(285 284)
(286 285)
(287 286)
(288 287)
(289 288)
(280 22)
(22 289)
(21 22)
(290 291)
(291 292)
(292 293)
(293 294)
(294 295)
(295 296)
(296 297)
(298 299)
(299 300)
(31 25)
(26 33)
(35 29)
(37 36)
(36 301)
(301 302)
(303 304)
(304 305)
(306 23)
(23 298)
(30 307)
(32 38)
(308 34)
(309 310)
(311 35)
(312 313)
(314 315)
)

// concaveStart mixedStart nonFeatureStart
21 24 39
// internalStart flatStart openStart multipleStart
239 280 280 280
// normals

534
(
(0.415641 -0.738344 -0.531122)
(0.660341 -0.750532 -0.0255326)
(-0.0643199 -0.602059 -0.795857)
(-0.0394384 -0.950551 -0.308054)
(0.23439 -0.729635 -0.642412)
(0.638769 -0.399346 -0.657644)
(0.28746 -0.954305 -0.0816608)
(0.581998 -0.114659 -0.805066)
(0.971579 -0.202682 -0.122284)
(0.0930706 -0.00420077 -0.995651)
(0.594615 -0.137067 -0.792241)
(0.56837 -0.153729 -0.808284)
(0.95663 -0.288516 -0.0402088)
(0.571103 -0.135675 -0.809588)
(0.92996 -0.365532 -0.0394964)
(0.648179 -0.316383 -0.692652)
(0.221058 -0.0747251 -0.972394)
(0.625008 -0.0444612 -0.779351)
(0.990266 -0.0711157 -0.119652)
(0.10183 -0.013957 -0.994704)
(0.622122 -0.0403364 -0.781881)
(0.624693 -0.0365662 -0.780013)
(0.997587 -0.0494743 -0.0486991)
(0.647426 -0.0381003 -0.761175)
(0.998259 -0.0501419 -0.031068)
(0.588633 -0.0290037 -0.80788)
(0.99213 -0.0291006 -0.121781)
(0.475409 -0.0538192 -0.878117)
(0.922929 -0.00340504 -0.384954)
(0.424884 0.0454849 -0.904104)
(0.88673 -0.220538 -0.406292)
(0.542533 -0.158155 -0.825012)
(0.976382 -0.152684 -0.152856)
(0.553078 -0.116357 -0.824964)
(0.952087 -0.286099 -0.108059)
(0.574097 -0.213987 -0.790331)
(0.917356 -0.289004 -0.273743)
(0.574698 -0.182937 -0.797657)
(0.955265 -0.00965883 -0.295593)
(0.131592 0.027805 -0.990914)
(0.637273 -0.0127774 -0.770532)
(0.600044 -0.056474 -0.797971)
(0.971533 -0.0567938 -0.229996)
(0.0828722 -0.02857 -0.996151)
(0.606029 -0.0657229 -0.792723)
(0.561517 -0.132652 -0.816764)
(0.958761 -0.0932654 -0.268474)
(0.543114 -0.111731 -0.832192)
(0.859562 -0.445282 -0.250753)
(0.578129 -0.189399 -0.793659)
(0.950521 -0.0338072 -0.308816)
(-0.528625 -0.847257 -0.0520718)
(-0.280081 -0.801584 -0.528221)
(0.398154 -0.772324 -0.494963)
(0.75359 -0.595253 0.278883)
(0.109834 0.63369 -0.76575)
(0.668177 0.531102 -0.521028)
(0.464092 0.740522 -0.486051)
(0.682238 0.730421 0.032187)
(0.628972 0.135102 -0.765599)
(0.897959 0.296609 -0.325105)
(0.0975367 -0.0100236 -0.995181)
(0.615104 -0.0019124 -0.788444)
(0.116857 0.0740303 -0.990386)
(0.614981 -0.00290195 -0.788537)
(0.143249 0.000301278 -0.989687)
(0.634604 0.172644 -0.753307)
(0.597851 0.0355131 -0.80082)
(0.947295 0.154538 -0.280624)
(0.457585 0.184643 -0.869783)
(0.964629 0.207412 -0.162702)
(0.592937 0.0555732 -0.803329)
(0.978675 0.0702104 -0.193045)
(0.599534 0.0363347 -0.799524)
(0.982192 0.0121265 -0.187488)
(0.614846 -0.0831662 -0.78425)
(0.929815 0.146147 -0.337764)
(0.183201 -0.0203216 -0.982865)
(0.674669 -0.0181159 -0.737898)
(0.198847 0.112552 -0.973546)
(0.678347 0.0235823 -0.734363)
(0.593847 -0.0316216 -0.803957)
(0.960543 0.0905038 -0.262994)
(0.439782 0.109265 -0.891433)
(0.8684 0.138274 -0.476195)
(0.549552 0.0592315 -0.833357)
(0.966246 0.0796691 -0.244992)
(0.589797 0.0176123 -0.80736)
(0.986392 0.041215 -0.15916)
(0.101658 0.00319128 -0.994814)
(0.599863 0.00493848 -0.800088)
(0.613745 0.0271556 -0.789037)
(0.987462 0.04259 -0.152003)
(0.605144 0.0852868 -0.791535)
(0.994468 0.0301151 -0.100634)
(0.607632 0.0693735 -0.791183)
(0.962864 0.240073 -0.12352)
(0.448723 0.158663 -0.879474)
(0.891121 0.196884 -0.408828)
(0.596628 0.105756 -0.795519)
(0.968079 0.124141 -0.217742)
(-0.145417 0.156572 -0.976903)
(-0.158513 0.66576 -0.729135)
(0.689338 0.179703 -0.701798)
(0.962061 0.242723 -0.124597)
(-0.116462 0.634606 -0.76401)
(0.125538 0.985755 -0.111922)
(0.00524829 0.716294 -0.697778)
(0.229445 0.952906 -0.198305)
(0.557541 0.363747 -0.746215)
(0.577943 0.78998 -0.204727)
(-0.690977 -0.383717 -0.612628)
(-0.261197 -0.329033 -0.907476)
(-0.421737 -0.591591 0.687137)
(-0.0515959 -0.685845 -0.725916)
(-0.195794 -0.710939 0.675448)
(0.083319 -0.815527 -0.572689)
(-0.197252 -0.744086 0.6383)
(-0.166799 -0.68161 -0.71245)
(-0.194352 -0.980884 0.00965687)
(0.00167466 -0.832485 -0.554046)
(0.0194546 -0.300347 -0.953631)
(-0.067157 -0.650392 -0.756624)
(-0.0820204 -0.996566 -0.011374)
(-0.103158 -0.698625 -0.708013)
(-0.0870908 -0.989666 0.11391)
(-0.148296 -0.844965 -0.513851)
(-0.0907263 -0.893897 0.438994)
(0.137789 -0.879819 -0.454899)
(0.204144 -0.877096 0.434774)
(0.261937 -0.96317 -0.0607665)
(0.295854 -0.796884 0.526732)
(0.850778 -0.435657 -0.293906)
(0.619711 -0.770319 0.150223)
(-0.794754 -0.140586 -0.590425)
(-0.666474 -0.0876721 0.740355)
(-0.723522 -0.0682771 -0.686917)
(-0.276998 -0.0727339 -0.958114)
(0.970322 -0.213281 -0.113961)
(0.859743 -0.28109 0.426416)
(-0.748371 -0.0175628 -0.663048)
(-0.767217 -0.0100888 0.641308)
(-0.727067 0.0018059 -0.686564)
(-0.266954 -0.0026935 -0.963705)
(0.968421 -0.211867 -0.131424)
(0.822062 -0.210584 0.529026)
(-0.72524 -0.00198308 -0.688493)
(-0.778218 -0.0130589 0.627858)
(-0.722241 0.000941826 -0.69164)
(-0.248489 0.00518857 -0.968621)
(0.880641 -0.446573 -0.15825)
(0.762987 -0.299035 0.573087)
(0.924615 -0.327839 -0.193928)
(0.872833 -0.14832 0.464934)
(-0.688239 -0.067299 -0.722356)
(-0.783473 -0.0451983 0.619781)
(0.988944 -0.0393297 -0.142978)
(0.875478 -0.113309 0.469786)
(-0.576805 -0.210966 -0.78917)
(-0.794939 -0.10812 0.596978)
(0.997352 -0.024161 -0.0686009)
(0.854572 -0.041995 0.517633)
(-0.774556 -0.218197 -0.593678)
(-0.535743 -0.160627 0.828962)
(-0.804959 -0.191662 -0.561522)
(-0.40278 -0.159209 -0.901344)
(-0.652894 -0.450689 0.608776)
(0.998434 -0.0402618 -0.0388279)
(0.847907 -0.0492695 0.527851)
(-0.75962 -0.135627 -0.636068)
(-0.697591 -0.00128959 0.716495)
(0.993718 -0.0885129 -0.0684805)
(0.847364 -0.080572 0.524864)
(-0.721629 -0.0273483 -0.69174)
(-0.782124 -0.0150702 0.62294)
(-0.712491 -0.0202032 -0.701391)
(-0.217349 -0.0199349 -0.97589)
(0.967691 -0.139662 -0.209923)
(0.8859 -0.110522 0.450518)
(-0.722781 -0.00123182 -0.691076)
(-0.831489 -0.00769417 0.555488)
(-0.73013 -0.00756003 -0.683266)
(-0.213077 -0.0122144 -0.976959)
(0.688229 -0.312321 -0.654825)
(0.804072 -0.329663 0.494763)
(0.93726 -0.167369 -0.305829)
(0.962112 0.244626 0.12041)
(0.648742 -0.578135 0.494868)
(-0.726941 -0.0138577 -0.68656)
(-0.868694 -0.00904241 0.495266)
(-0.722539 -0.00980947 -0.691261)
(-0.209897 -0.0107563 -0.977664)
(0.972442 0.105333 0.207994)
(0.710951 0.18302 -0.679009)
(0.677999 -0.0555288 0.732962)
(-0.706471 -0.0407672 -0.706567)
(-0.879007 -0.0226135 0.476272)
(-0.683623 -0.0184998 -0.729601)
(-0.197138 -0.0141255 -0.980274)
(0.904736 -0.377954 -0.196479)
(0.838448 -0.222904 0.497311)
(0.920755 -0.324017 -0.21731)
(0.9085 -0.134324 0.395707)
(-0.662579 -0.0542435 -0.747025)
(-0.915323 -0.050923 0.399489)
(-0.675108 -0.0672744 -0.734645)
(-0.162092 -0.0464883 -0.98568)
(0.54805 0.00833847 -0.836404)
(0.960365 -0.120704 -0.251254)
(0.983149 -0.0761976 -0.166171)
(0.922437 -0.0639335 0.380817)
(-0.577239 -0.213614 -0.78814)
(-0.782748 -0.125544 0.609544)
(0.550232 0.0368903 -0.834196)
(0.983851 0.00964538 -0.178728)
(0.969964 -0.0195738 -0.242458)
(0.936552 -0.140175 0.321282)
(-0.769458 -0.30073 -0.563468)
(-0.550279 -0.210171 0.808097)
(-0.825763 -0.254696 -0.503235)
(-0.412352 -0.197453 -0.88937)
(-0.656709 -0.500684 0.563958)
(0.714561 0.00666635 -0.699541)
(0.971696 -0.0563641 -0.229412)
(0.976491 -0.0454453 -0.210711)
(0.926285 -0.158957 0.341656)
(-0.751417 -0.143033 -0.644139)
(-0.70736 -0.00931646 0.706792)
(0.974473 -0.0697846 -0.213383)
(0.923062 -0.000402875 0.384651)
(-0.711271 0.00430839 -0.702904)
(-0.755462 -0.0026136 0.655188)
(-0.69375 0.0175465 -0.720002)
(-0.215448 0.0195014 -0.976321)
(0.960655 -0.101727 -0.258443)
(0.901587 -0.106739 0.419223)
(-0.706357 0.0408402 -0.706676)
(-0.766056 0.00818162 0.642721)
(-0.717514 0.032126 -0.695803)
(-0.202206 0.0228377 -0.979077)
(0.770445 -0.533234 -0.349394)
(0.862029 -0.37327 0.342894)
(0.907686 -0.381522 -0.174774)
(0.860886 -0.37483 0.34406)
(-0.707876 0.0137162 -0.706203)
(-0.790382 0.00625155 0.612582)
(-0.712894 0.00961881 -0.701206)
(-0.183276 -0.0041555 -0.983053)
(0.982582 -0.059228 -0.17614)
(0.895122 -0.217926 0.388929)
(-0.66305 -0.0755495 -0.744753)
(-0.806063 -0.0395886 0.590505)
(-0.648003 -0.0624514 -0.759073)
(-0.138267 -0.0713915 -0.987818)
(0.523704 -0.0224195 -0.851606)
(0.954041 -0.138065 -0.265978)
(0.981226 -0.0781939 -0.176297)
(0.943136 0.0383692 0.330185)
(-0.5277 -0.244627 -0.813444)
(-0.899191 -0.152736 0.410033)
(0.526972 0.0173426 -0.849706)
(0.981814 0.00426022 -0.189799)
(-0.812541 -0.389658 -0.433524)
(-0.718118 -0.357961 0.5968)
(-0.841901 -0.35439 -0.406953)
(-0.35199 -0.312126 -0.882429)
(-0.7196 -0.550081 0.423777)
(0.540037 -0.163658 -0.825576)
(0.969738 -0.192855 -0.149714)
(-0.748959 -0.593529 -0.29459)
(-0.902161 -0.178294 0.392831)
(-0.711723 -0.508949 -0.484171)
(-0.237767 -0.4184 -0.876589)
(-0.615881 -0.676609 -0.403597)
(-0.205474 -0.620962 -0.75643)
(-0.600146 -0.688682 -0.406869)
(-0.422953 -0.866155 0.266244)
(-0.773083 0.143307 -0.617904)
(-0.766959 0.269546 0.582339)
(-0.788904 0.129896 -0.600631)
(-0.121481 0.149123 -0.981328)
(0.572914 0.0932668 -0.814291)
(0.97251 -0.0176268 -0.232191)
(-0.714343 -0.0372095 -0.698805)
(-0.777418 0.00183762 0.628982)
(-0.727584 -0.0485502 -0.684299)
(-0.174996 -0.02486 -0.984255)
(0.569057 0.0448745 -0.821073)
(0.978426 0.0509515 -0.200217)
(0.978135 0.0499559 -0.201884)
(0.945063 -0.0130039 0.326628)
(-0.734341 -0.0370627 -0.677768)
(-0.733714 -0.00631503 0.679429)
(-0.717891 -0.0231653 -0.69577)
(-0.194373 -0.0196905 -0.98073)
(0.706804 0.0853917 -0.702237)
(0.981946 0.0165946 -0.188434)
(-0.726754 -0.00700939 -0.686862)
(-0.69315 -0.00135653 0.720792)
(-0.717386 0.000645976 -0.696676)
(-0.208927 0.000986244 -0.977931)
(-0.712041 -0.00909417 -0.702079)
(-0.690195 -0.0135887 0.723495)
(-0.714601 -0.0111973 -0.699443)
(-0.21724 -0.00691271 -0.976094)
(0.835432 0.548952 0.0265518)
(0.566509 0.699783 -0.435167)
(0.593822 0.477603 0.647512)
(-0.702588 -0.0326686 -0.710847)
(-0.735808 0.0106809 0.677106)
(-0.691384 -0.0235593 -0.722103)
(-0.212745 -0.0267392 -0.976742)
(0.966596 0.116358 -0.228373)
(0.886223 0.165063 0.432855)
(-0.671937 -0.0599841 -0.738175)
(-0.755943 0.111967 0.644992)
(0.976033 0.0437303 -0.213181)
(0.929329 0.0629621 0.363845)
(-0.696804 0.291395 -0.655403)
(-0.798445 0.303264 0.520112)
(-0.699743 0.5725 -0.427322)
(-0.784437 0.315835 0.533767)
(0.577041 0.053223 -0.814979)
(0.961161 -0.0259737 -0.274763)
(-0.848025 0.143671 -0.51011)
(-0.785151 0.258041 0.562986)
(-0.771051 0.179026 -0.611089)
(-0.189593 0.0301938 -0.981398)
(0.576799 0.0759976 -0.813343)
(0.970925 0.0727947 -0.228049)
(0.974031 0.0826987 -0.210773)
(0.949248 0.00539876 0.314484)
(-0.721962 0.0311731 -0.69123)
(-0.859194 0.0808377 0.505224)
(-0.727611 0.026499 -0.685478)
(-0.196031 0.00645399 -0.980577)
(0.738798 0.0850225 -0.668542)
(0.982536 0.0145592 -0.185504)
(0.992522 0.065257 -0.103159)
(0.902607 0.00966508 0.430357)
(-0.715929 0.00227457 -0.698169)
(-0.826732 0.00861611 0.562529)
(-0.716343 0.0019073 -0.697746)
(-0.200906 0.00860968 -0.979573)
(0.569657 0.166656 -0.804808)
(0.973034 0.00675572 -0.230565)
(0.994425 0.0341492 -0.0997608)
(0.867942 0.144533 0.475169)
(-0.717763 0.00468087 -0.696272)
(-0.757495 0.00892377 0.65278)
(-0.705907 0.0142663 -0.708161)
(-0.211439 0.0152065 -0.977273)
(0.564804 0.309845 -0.764848)
(0.980791 0.181669 -0.0710287)
(0.979278 0.176978 -0.0984568)
(0.895701 0.0121717 0.44449)
(-0.702828 0.00860907 -0.711307)
(-0.70509 0.00498093 0.709101)
(-0.690735 0.0177491 -0.722891)
(-0.222624 0.0162156 -0.974769)
(0.958952 0.274012 -0.0729925)
(0.755102 0.287692 -0.589113)
(0.960726 0.269324 -0.0668673)
(0.789182 0.181214 0.586816)
(-0.677107 -0.00570911 -0.735863)
(-0.700556 0.0124249 0.713489)
(0.891649 0.247896 -0.378826)
(0.906149 0.158344 0.392199)
(-0.628288 -0.0363556 -0.777131)
(-0.75234 0.0809546 0.653782)
(0.969287 0.108647 -0.220633)
(0.901278 0.0950426 0.422688)
(-0.653041 0.233349 -0.720475)
(-0.808346 0.236932 0.538924)
(-0.687574 0.48972 -0.536112)
(-0.795868 0.248617 0.552073)
(0.986799 0.0460769 -0.155257)
(0.886563 0.0695333 0.457352)
(-0.795587 0.127693 -0.592229)
(-0.648324 0.219634 0.728997)
(-0.767498 0.140181 -0.625537)
(-0.231319 0.0166984 -0.972735)
(0.989302 0.0663784 -0.129902)
(0.901581 0.0698157 0.42694)
(-0.730307 0.0230405 -0.682731)
(-0.681192 0.0727013 0.728486)
(-0.751135 0.00595347 -0.660121)
(-0.255338 -0.0220265 -0.966601)
(0.717157 0.351718 -0.601648)
(0.980812 0.145875 -0.129336)
(-0.739754 -0.0190302 -0.672608)
(-0.703032 0.0188411 0.710909)
(-0.718636 -0.000572551 -0.695386)
(-0.264985 -0.0104456 -0.964196)
(0.942929 0.329732 0.0464881)
(0.709922 0.383153 -0.590935)
(-0.705687 -0.0243075 -0.708107)
(-0.768233 0.0353839 0.639192)
(0.900421 0.27215 -0.339376)
(0.9113 0.174496 0.372939)
(-0.577167 0.0647863 -0.814052)
(-0.943071 0.162433 0.290229)
(-0.352891 0.273023 -0.894945)
(-0.563709 0.691969 -0.451012)
(-0.119856 0.236682 -0.964166)
(0.00245578 0.780815 -0.624758)
(-0.034107 0.256262 -0.966006)
(-0.00244869 0.735313 -0.677723)
(0.746081 0.655047 0.119482)
(-0.748285 0.525475 0.404902)
(-0.152923 0.928405 -0.338643)
(-0.140201 0.555701 0.819475)
(-0.0396754 0.777906 -0.627127)
(-0.114712 0.727518 0.676431)
(-0.0594849 0.733789 -0.676769)
(-0.137065 0.961778 0.237059)
(-0.0499635 0.69358 -0.718645)
(-0.0448552 0.99819 0.0400553)
(-0.140341 0.665813 -0.732801)
(0.0169996 0.999791 -0.0113459)
(-0.148073 0.906645 -0.395057)
(-0.263056 0.940773 0.213889)
(0.265562 0.92242 -0.28039)
(0.202757 0.939463 0.276224)
(-0.221138 -0.732172 0.644222)
(-0.231669 -0.264708 0.936087)
(-0.227923 -0.78976 0.5695)
(-0.302765 -0.278661 0.911417)
(-0.0737127 -0.749705 0.657654)
(-0.33256 -0.281701 0.900027)
(-0.508346 -0.513263 0.691481)
(-0.151732 -0.987569 0.0410464)
(-0.17276 -0.560608 0.809859)
(-0.00837245 -0.998286 0.0579261)
(-0.0200756 -0.611927 0.790659)
(0.0904011 -0.961214 0.260566)
(0.0911287 -0.618205 0.780716)
(-0.906514 -0.0104721 0.422045)
(-0.571571 -0.0667381 0.817834)
(-0.816533 -0.196577 0.542799)
(-0.418579 -0.0974273 0.90294)
(0.640857 0.183838 0.745323)
(0.952947 0.0868984 0.290416)
(0.538452 0.544414 0.643182)
(0.933657 0.312653 0.174735)
(-0.770416 0.0183623 0.637277)
(-0.30501 0.130475 0.943369)
(-0.402477 0.161496 0.901072)
(-0.358987 0.655983 0.663939)
(-0.33692 0.353387 0.872699)
(-0.167066 0.958236 0.232107)
(-0.120172 0.601898 0.789479)
(-0.0165703 0.998843 0.0451524)
(0.0338195 0.653121 0.756498)
(-0.0554123 0.997944 -0.0322008)
(0.0979808 0.6609 0.74405)
(-0.777785 -0.498161 -0.383257)
(-0.72368 -0.66267 0.192757)
(-0.914716 -0.158031 -0.371915)
(-0.979547 -0.112359 0.166921)
(-0.933248 0.356324 -0.0456195)
(-0.866552 0.148617 0.476446)
(-0.834394 0.547916 -0.0597878)
(-0.709356 0.38044 0.593363)
(0.57434 -0.197799 -0.794361)
(0.451193 -0.742279 -0.495426)
(-0.160379 -0.94775 0.275769)
(-0.692308 -0.721241 0.0228317)
(-0.521985 -0.655387 -0.545894)
(-0.149707 -0.388771 -0.90909)
(0.00947797 -0.999929 -0.00726479)
(-0.160162 -0.498577 -0.851921)
(0.0151522 -0.999773 -0.014986)
(0.00730057 -0.513067 -0.858317)
(0.0131676 -0.999913 0.00116795)
(0.0343573 -0.530883 -0.846748)
(0.0109174 -0.99968 0.0228039)
(0.014755 -0.568261 -0.822716)
(0.00262123 -0.998999 0.0446499)
(-0.00263737 -0.591382 -0.806387)
(0.00191119 -0.998485 0.0549838)
(-0.00391064 -0.586665 -0.80982)
(0.0146021 -0.998777 0.0472432)
(0.00709169 -0.570684 -0.821139)
(0.0149021 -0.999749 0.0167243)
(0.00299059 -0.555603 -0.831442)
(-0.132779 -0.988955 0.0658689)
(-0.562485 -0.75812 -0.329946)
(-0.0580001 -0.998103 -0.0206604)
(-0.0872541 -0.512639 -0.854159)
(-0.364066 -0.407204 -0.83764)
(-0.0861379 0.980005 -0.179362)
(-0.0815854 0.739022 -0.668723)
(0.00854708 0.965343 -0.260844)
(-0.00758651 0.700679 -0.713437)
(0.00803923 0.963844 -0.266345)
(0.0125628 0.697041 -0.716921)
(-3.24541e-05 0.964553 -0.263888)
(0.00341328 0.694723 -0.719269)
(0.000128757 0.964478 -0.264162)
(-0.00378982 0.687331 -0.726335)
(0.00286571 0.963682 -0.267037)
(-0.000827191 0.677442 -0.735576)
(-0.0107025 0.962129 -0.272383)
(-0.0060831 0.675535 -0.737302)
(-0.329907 0.828351 -0.452765)
(-0.466292 0.280327 -0.83904)
(-0.0875261 0.75473 -0.65017)
(-0.160207 0.296321 -0.941556)
(0.226995 0.972138 -0.0584866)
(-0.0819554 -0.994387 0.0669237)
(-0.493054 0.801772 -0.337726)
(-0.0765363 0.74111 -0.667007)
(-0.165946 0.196329 -0.966394)
(0.00182085 0.703912 -0.710285)
(-0.00777867 0.242425 -0.970139)
(-0.0118868 0.684749 -0.728682)
(-0.0189371 0.225023 -0.974169)
(-0.00628673 0.675672 -0.737175)
(-0.00629577 0.209874 -0.977708)
(-0.145434 0.719887 -0.678683)
(-0.116556 0.209336 -0.970872)
(-0.109374 0.71774 -0.687668)
(-0.353665 0.269525 -0.895699)
(0.676691 0.73507 0.0419763)
(0.989142 0.146186 -0.0150762)
(0.885131 -0.335061 0.322919)
(0.410879 -0.876772 0.249899)
(-0.49357 -0.725786 0.479191)
(-0.058701 -0.975886 0.21024)
(-0.227794 0.961381 0.154455)
(-0.739919 0.667292 0.0850968)