/*--------------------------------*- C++ -*----------------------------------*\
  =========                 |
  \\      /  F ield         | OpenFOAM: The Open Source CFD Toolbox
   \\    /   O peration     | Website:  https://openfoam.org
    \\  /    A nd           | Version:  13
     \\/     M anipulation  |
\*---------------------------------------------------------------------------*/
FoamFile
{
    format      ascii;
    class       extendedFeatureEdgeMesh;
    location    "constant/extendedFeatureEdgeMesh";
    object      horizontalStabiliser.extendedFeatureEdgeMesh;
}
// * * * * * * * * * * * * * * * * * * * * * * * * * * * * * * * * * * * * * //

// points

9220
(
(-0.829014 -0.28738 -0.0310575)
(-0.830216 -0.282991 -0.0337857)
(-0.824005 -0.288549 -0.0313353)
(-0.821465 -0.286259 -0.0335669)
(-0.832425 0.299832 -0.0323944)
(-0.829943 0.301412 -0.0333482)
(-0.816607 0.300327 -0.0324925)
(-0.830502 0.303062 -0.0300692)
(-0.83297 -0.284394 -0.0255608)
(-0.794418 -0.285935 -0.026815)
(-0.789829 0.300654 -0.0258428)
(-0.830222 0.303209 -0.0256565)
(-0.832069 -0.285114 -0.0232528)
(-0.774657 -0.285979 -0.0199005)
(-0.828645 0.300739 -0.0191657)
(-0.770307 0.300499 -0.0188032)
(-0.754363 -0.285683 -0.0129502)
(-0.750405 0.300149 -0.0117951)
(-0.81265 -0.28497 -0.00288189)
(-0.734607 -0.285845 -1.58352e-05)
(-0.733623 -0.287068 0.00304808)
(-0.732215 -0.283482 0.00273791)
(-0.734225 -0.281621 -0.000675865)
(-0.808594 0.300514 0.00107341)
(-0.731994 0.301169 0.00314372)
(-0.734596 0.302532 0.00129369)
(-0.62761 -0.286797 0.0143066)
(-0.624836 -0.288149 0.0165159)
(-0.671078 0.283329 0.0126299)
(-0.670313 0.287155 0.0137664)
(-0.623104 0.286716 0.0146989)
(-0.599616 -0.285771 0.0200349)
(-0.598559 -0.286905 0.0226951)
(-0.596408 -0.283479 0.021974)
(-0.595257 0.283413 0.0222681)
(-0.598978 0.285502 0.0195777)
(-0.596497 0.287546 0.0226246)
(-0.599871 0.288671 0.0212125)
(-0.788719 0.300432 0.0209852)
(-0.786152 -0.285116 0.023897)
(-0.600673 -0.287176 0.0259141)
(-0.596951 -0.28533 0.0250257)
(-0.596335 0.285388 0.0258183)
(-0.61622 -0.28511 0.0337302)
(-0.598313 -0.284197 0.0277554)
(-0.76765 0.300472 0.0338828)
(-0.74036 0.304856 0.0333322)
(-0.759305 -0.285173 0.0380269)
(-0.749963 -0.284987 0.0403863)
(-0.735362 -0.285216 0.0406064)
(-0.754874 0.300567 0.0404196)
(-0.740774 0.30079 0.0407036)
(-0.732267 0.299979 0.0371187)
(-0.737638 -0.284181 0.0413033)
(-0.752691 0.299572 0.0409762)
(-0.832429 -0.284425 -0.0295682)
(-0.825828 -0.285246 -0.0344428)
(-0.818971 -0.28805 -0.0307732)
(-0.815959 -0.28406 -0.0318927)
(-0.832809 -0.278889 -0.0310636)
(-0.830236 -0.276759 -0.0345915)
(-0.825927 -0.279723 -0.0356274)
(-0.820973 -0.28183 -0.0346628)
(-0.815679 -0.277459 -0.0329535)
(-0.832683 -0.272125 -0.0313285)
(-0.830095 -0.269915 -0.0346091)
(-0.82569 -0.273028 -0.0357622)
(-0.820538 -0.275358 -0.0349504)
(-0.81534 -0.270526 -0.0329234)
(-0.8326 -0.265257 -0.0312605)
(-0.830065 -0.263129 -0.0345279)
(-0.825591 -0.266179 -0.0356481)
(-0.820297 -0.268459 -0.0348158)
(-0.815221 -0.263675 -0.03278)
(-0.832597 -0.258543 -0.0312119)
(-0.830079 -0.256453 -0.0345056)
(-0.825601 -0.259462 -0.035595)
(-0.820261 -0.261682 -0.0347143)
(-0.815225 -0.256983 -0.0327357)
(-0.832605 -0.251887 -0.0312065)
(-0.830085 -0.249797 -0.0345079)
(-0.825616 -0.252805 -0.0355925)
(-0.820282 -0.255014 -0.0346971)
(-0.81524 -0.250331 -0.0327386)
(-0.832606 -0.245226 -0.0312094)
(-0.830084 -0.243132 -0.0345099)
(-0.825618 -0.246144 -0.0355962)
(-0.82029 -0.248358 -0.0347021)
(-0.815243 -0.243669 -0.032743)
(-0.832605 -0.238559 -0.0312103)
(-0.830084 -0.236465 -0.0345101)
(-0.825617 -0.239477 -0.035597)
(-0.82029 -0.241693 -0.0347044)
(-0.815242 -0.237002 -0.0327436)
(-0.832605 -0.231892 -0.0312102)
(-0.830084 -0.229798 -0.03451)
(-0.825617 -0.23281 -0.0355969)
(-0.820289 -0.235026 -0.0347044)
(-0.815241 -0.230335 -0.0327434)
(-0.832605 -0.225225 -0.0312101)
(-0.830084 -0.223132 -0.03451)
(-0.825617 -0.226144 -0.0355968)
(-0.820289 -0.228359 -0.0347042)
(-0.815241 -0.223668 -0.0327433)
(-0.832605 -0.218559 -0.0312101)
(-0.830084 -0.216465 -0.03451)
(-0.825617 -0.219477 -0.0355968)
(-0.820289 -0.221692 -0.0347042)
(-0.815241 -0.217002 -0.0327433)
(-0.832605 -0.211892 -0.0312101)
(-0.830084 -0.209798 -0.03451)
(-0.825617 -0.21281 -0.0355968)
(-0.820289 -0.215026 -0.0347042)
(-0.815241 -0.210335 -0.0327433)
(-0.832605 -0.205225 -0.0312101)
(-0.830084 -0.203132 -0.03451)
(-0.825617 -0.206144 -0.0355968)
(-0.820289 -0.208359 -0.0347042)
(-0.815241 -0.203668 -0.0327433)
(-0.832605 -0.198559 -0.0312101)
(-0.830084 -0.196465 -0.03451)
(-0.825617 -0.199477 -0.0355968)
(-0.820289 -0.201692 -0.0347042)
(-0.815241 -0.197002 -0.0327433)
(-0.832605 -0.191892 -0.0312101)
(-0.830084 -0.189798 -0.03451)
(-0.825617 -0.19281 -0.0355968)
(-0.820289 -0.195026 -0.0347042)
(-0.815241 -0.190335 -0.0327433)
(-0.832605 -0.185225 -0.0312101)
(-0.830084 -0.183132 -0.03451)
(-0.825617 -0.186144 -0.0355968)
(-0.820289 -0.188359 -0.0347042)
(-0.815241 -0.183668 -0.0327433)
(-0.832605 -0.178559 -0.0312101)
(-0.830084 -0.176465 -0.03451)
(-0.825617 -0.179477 -0.0355968)
(-0.820289 -0.181692 -0.0347042)
(-0.815241 -0.177002 -0.0327433)
(-0.832605 -0.171892 -0.0312101)
(-0.830084 -0.169798 -0.03451)
(-0.825617 -0.17281 -0.0355968)
(-0.820289 -0.175026 -0.0347042)
(-0.815241 -0.170335 -0.0327433)
(-0.832605 -0.165225 -0.0312101)
(-0.830084 -0.163132 -0.03451)
(-0.825617 -0.166144 -0.0355968)
(-0.820289 -0.168359 -0.0347042)
(-0.815241 -0.163668 -0.0327433)
(-0.832605 -0.158559 -0.0312101)
(-0.830084 -0.156465 -0.03451)
(-0.825617 -0.159477 -0.0355968)
(-0.820289 -0.161692 -0.0347042)
(-0.815241 -0.157002 -0.0327433)
(-0.832605 -0.151892 -0.0312101)
(-0.830084 -0.149798 -0.03451)
(-0.825617 -0.15281 -0.0355968)
(-0.820289 -0.155026 -0.0347042)
(-0.815241 -0.150335 -0.0327433)
(-0.832605 -0.145225 -0.0312101)
(-0.830084 -0.143132 -0.03451)
(-0.825617 -0.146144 -0.0355968)
(-0.820289 -0.148359 -0.0347042)
(-0.815241 -0.143668 -0.0327433)
(-0.832605 -0.138559 -0.0312101)
(-0.830084 -0.136465 -0.03451)
(-0.825617 -0.139477 -0.0355968)
(-0.820289 -0.141692 -0.0347042)
(-0.815241 -0.137002 -0.0327433)
(-0.832605 -0.131892 -0.0312101)
(-0.830084 -0.129798 -0.03451)
(-0.825617 -0.13281 -0.0355968)
(-0.820289 -0.135026 -0.0347042)
(-0.815241 -0.130335 -0.0327433)
(-0.832605 -0.125225 -0.0312101)
(-0.830084 -0.123132 -0.03451)
(-0.825617 -0.126144 -0.0355968)
(-0.820289 -0.128359 -0.0347042)
(-0.815241 -0.123668 -0.0327433)
(-0.832605 -0.118559 -0.0312101)
(-0.830084 -0.116465 -0.03451)
(-0.825617 -0.119477 -0.0355968)
(-0.820289 -0.121692 -0.0347042)
(-0.815241 -0.117002 -0.0327433)
(-0.832605 -0.111892 -0.0312101)
(-0.830084 -0.109798 -0.03451)
(-0.825617 -0.11281 -0.0355968)
(-0.820289 -0.115026 -0.0347042)
(-0.815241 -0.110335 -0.0327433)
(-0.832605 -0.105225 -0.0312101)
(-0.830084 -0.103132 -0.03451)
(-0.825617 -0.106144 -0.0355968)
(-0.820289 -0.108359 -0.0347042)
(-0.815241 -0.103668 -0.0327433)
(-0.832605 -0.0985588 -0.0312101)
(-0.830084 -0.096465 -0.03451)
(-0.825617 -0.0994769 -0.0355968)
(-0.820289 -0.101692 -0.0347042)
(-0.815241 -0.0970017 -0.0327433)
(-0.832605 -0.0918921 -0.0312101)
(-0.830084 -0.0897983 -0.03451)
(-0.825617 -0.0928102 -0.0355968)
(-0.820289 -0.0950257 -0.0347042)
(-0.815241 -0.090335 -0.0327433)
(-0.832605 -0.0852254 -0.0312101)
(-0.830084 -0.0831316 -0.03451)
(-0.825617 -0.0861435 -0.0355968)
(-0.820289 -0.0883589 -0.0347042)
(-0.815241 -0.0836683 -0.0327433)
(-0.832605 -0.0785587 -0.0312101)
(-0.830084 -0.076465 -0.03451)
(-0.825617 -0.0794768 -0.0355968)
(-0.820289 -0.0816923 -0.0347042)
(-0.815241 -0.0770016 -0.0327433)
(-0.832605 -0.071892 -0.0312101)
(-0.830084 -0.0697983 -0.03451)
(-0.825617 -0.0728102 -0.0355968)
(-0.820289 -0.0750256 -0.0347042)
(-0.815241 -0.070335 -0.0327433)
(-0.832605 -0.0652254 -0.0312101)
(-0.830084 -0.0631316 -0.03451)
(-0.825617 -0.0661435 -0.0355968)
(-0.820289 -0.0683589 -0.0347042)
(-0.815241 -0.0636683 -0.0327433)
(-0.832605 -0.0585587 -0.0312101)
(-0.830084 -0.056465 -0.03451)
(-0.825617 -0.0594768 -0.0355968)
(-0.820289 -0.0616923 -0.0347042)
(-0.815241 -0.0570016 -0.0327433)
(-0.832605 -0.051892 -0.0312101)
(-0.830084 -0.0497983 -0.03451)
(-0.825617 -0.0528102 -0.0355968)
(-0.820289 -0.0550256 -0.0347042)
(-0.815241 -0.050335 -0.0327433)
(-0.832605 -0.0452254 -0.0312101)
(-0.830084 -0.0431316 -0.03451)
(-0.825617 -0.0461435 -0.0355968)
(-0.820289 -0.0483589 -0.0347042)
(-0.815241 -0.0436683 -0.0327433)
(-0.832605 -0.0385587 -0.0312101)
(-0.830084 -0.036465 -0.03451)
(-0.825617 -0.0394768 -0.0355968)
(-0.820289 -0.0416923 -0.0347042)
(-0.815241 -0.0370016 -0.0327433)
(-0.832605 -0.031892 -0.0312101)
(-0.830084 -0.0297983 -0.03451)
(-0.825617 -0.0328102 -0.0355968)
(-0.820289 -0.0350256 -0.0347042)
(-0.815241 -0.030335 -0.0327433)
(-0.832605 -0.0252254 -0.0312101)
(-0.830084 -0.0231316 -0.03451)
(-0.825617 -0.0261435 -0.0355968)
(-0.820289 -0.0283589 -0.0347042)
(-0.815241 -0.0236683 -0.0327433)
(-0.832605 -0.0185587 -0.0312101)
(-0.830084 -0.016465 -0.03451)
(-0.825617 -0.0194768 -0.0355968)
(-0.820289 -0.0216923 -0.0347042)
(-0.815241 -0.0170016 -0.0327433)
(-0.832605 -0.011892 -0.0312101)
(-0.830084 -0.00979831 -0.03451)
(-0.825617 -0.0128102 -0.0355968)
(-0.820289 -0.0150256 -0.0347042)
(-0.815241 -0.010335 -0.0327433)
(-0.832605 -0.00522538 -0.0312101)
(-0.830084 -0.00313165 -0.03451)
(-0.825617 -0.00614351 -0.0355968)
(-0.820289 -0.00835895 -0.0347042)
(-0.815241 -0.0036683 -0.0327433)
(-0.832605 0.00144129 -0.0312101)
(-0.830084 0.00353502 -0.03451)
(-0.825617 0.000523153 -0.0355968)
(-0.820289 -0.00169229 -0.0347042)
(-0.815241 0.00299837 -0.0327433)
(-0.832605 0.00810797 -0.0312101)
(-0.830084 0.0102017 -0.03451)
(-0.825617 0.00718983 -0.0355968)
(-0.820289 0.00497439 -0.0347042)
(-0.815241 0.00966504 -0.0327433)
(-0.832605 0.0147746 -0.0312101)
(-0.830084 0.0168684 -0.03451)
(-0.825617 0.0138565 -0.0355968)
(-0.820289 0.0116411 -0.0347042)
(-0.815241 0.0163317 -0.0327433)
(-0.832605 0.0214413 -0.0312101)
(-0.830084 0.023535 -0.03451)
(-0.825617 0.0205232 -0.0355968)
(-0.820289 0.0183077 -0.0347042)
(-0.815241 0.0229984 -0.0327433)
(-0.832605 0.028108 -0.0312101)
(-0.830084 0.0302017 -0.03451)
(-0.825617 0.0271898 -0.0355968)
(-0.820289 0.0249744 -0.0347042)
(-0.815241 0.029665 -0.0327433)
(-0.832605 0.0347746 -0.0312101)
(-0.830084 0.0368684 -0.03451)
(-0.825617 0.0338565 -0.0355968)
(-0.820289 0.0316411 -0.0347042)
(-0.815241 0.0363317 -0.0327433)
(-0.832605 0.0414413 -0.0312101)
(-0.830084 0.043535 -0.03451)
(-0.825617 0.0405232 -0.0355968)
(-0.820289 0.0383077 -0.0347042)
(-0.815241 0.0429984 -0.0327433)
(-0.832605 0.048108 -0.0312101)
(-0.830084 0.0502017 -0.03451)
(-0.825617 0.0471898 -0.0355968)
(-0.820289 0.0449744 -0.0347042)
(-0.815241 0.049665 -0.0327433)
(-0.832605 0.0547746 -0.0312101)
(-0.830084 0.0568684 -0.03451)
(-0.825617 0.0538565 -0.0355968)
(-0.820289 0.0516411 -0.0347042)
(-0.815241 0.0563317 -0.0327433)
(-0.832605 0.0614413 -0.0312101)
(-0.830084 0.063535 -0.03451)
(-0.825617 0.0605232 -0.0355968)
(-0.820289 0.0583077 -0.0347042)
(-0.815241 0.0629984 -0.0327433)
(-0.832605 0.068108 -0.0312101)
(-0.830084 0.0702017 -0.03451)
(-0.825617 0.0671898 -0.0355968)
(-0.820289 0.0649744 -0.0347042)
(-0.815241 0.069665 -0.0327433)
(-0.832605 0.0747746 -0.0312101)
(-0.830084 0.0768684 -0.03451)
(-0.825617 0.0738565 -0.0355968)
(-0.820289 0.0716411 -0.0347042)
(-0.815241 0.0763317 -0.0327433)
(-0.832605 0.0814413 -0.0312101)
(-0.830084 0.083535 -0.03451)
(-0.825617 0.0805232 -0.0355968)
(-0.820289 0.0783077 -0.0347042)
(-0.815241 0.0829984 -0.0327433)
(-0.832605 0.088108 -0.0312101)
(-0.830084 0.0902017 -0.03451)
(-0.825617 0.0871898 -0.0355968)
(-0.820289 0.0849744 -0.0347042)
(-0.815241 0.089665 -0.0327433)
(-0.832605 0.0947746 -0.0312101)
(-0.830084 0.0968684 -0.03451)
(-0.825617 0.0938565 -0.0355968)
(-0.820289 0.0916411 -0.0347042)
(-0.815241 0.0963317 -0.0327433)
(-0.832605 0.101441 -0.0312101)
(-0.830084 0.103535 -0.03451)
(-0.825617 0.100523 -0.0355968)
(-0.820289 0.0983077 -0.0347042)
(-0.815241 0.102998 -0.0327433)
(-0.832605 0.108108 -0.0312101)
(-0.830084 0.110202 -0.03451)
(-0.825617 0.10719 -0.0355968)
(-0.820289 0.104974 -0.0347042)
(-0.815241 0.109665 -0.0327433)
(-0.832605 0.114775 -0.0312101)
(-0.830084 0.116868 -0.03451)
(-0.825617 0.113856 -0.0355968)
(-0.820289 0.111641 -0.0347042)
(-0.815241 0.116332 -0.0327433)
(-0.832605 0.121441 -0.0312101)
(-0.830084 0.123535 -0.03451)
(-0.825617 0.120523 -0.0355968)
(-0.820289 0.118308 -0.0347042)
(-0.815241 0.122998 -0.0327433)
(-0.832605 0.128108 -0.0312101)
(-0.830084 0.130202 -0.03451)
(-0.825617 0.12719 -0.0355968)
(-0.820289 0.124974 -0.0347042)
(-0.815241 0.129665 -0.0327433)
(-0.832605 0.134775 -0.0312101)
(-0.830084 0.136868 -0.03451)
(-0.825617 0.133856 -0.0355968)
(-0.820289 0.131641 -0.0347042)
(-0.815241 0.136332 -0.0327433)
(-0.832605 0.141441 -0.0312101)
(-0.830084 0.143535 -0.03451)
(-0.825617 0.140523 -0.0355968)
(-0.820289 0.138308 -0.0347042)
(-0.815241 0.142998 -0.0327433)
(-0.832605 0.148108 -0.0312101)
(-0.830084 0.150202 -0.03451)
(-0.825617 0.14719 -0.0355968)
(-0.820289 0.144974 -0.0347042)
(-0.815241 0.149665 -0.0327433)
(-0.832605 0.154775 -0.0312101)
(-0.830084 0.156868 -0.03451)
(-0.825617 0.153856 -0.0355968)
(-0.820289 0.151641 -0.0347042)
(-0.815241 0.156332 -0.0327433)
(-0.832605 0.161441 -0.0312101)
(-0.830084 0.163535 -0.03451)
(-0.825617 0.160523 -0.0355968)
(-0.820289 0.158308 -0.0347042)
(-0.815241 0.162998 -0.0327433)
(-0.832605 0.168108 -0.0312101)
(-0.830084 0.170202 -0.03451)
(-0.825617 0.16719 -0.0355968)
(-0.820289 0.164974 -0.0347042)
(-0.815241 0.169665 -0.0327433)
(-0.832605 0.174775 -0.0312101)
(-0.830084 0.176868 -0.03451)
(-0.825617 0.173856 -0.0355968)
(-0.820289 0.171641 -0.0347042)
(-0.815241 0.176332 -0.0327433)
(-0.832605 0.181441 -0.0312101)
(-0.830084 0.183535 -0.03451)
(-0.825617 0.180523 -0.0355968)
(-0.820289 0.178308 -0.0347042)
(-0.815241 0.182998 -0.0327433)
(-0.832605 0.188108 -0.0312101)
(-0.830084 0.190202 -0.03451)
(-0.825617 0.18719 -0.0355968)
(-0.820289 0.184974 -0.0347042)
(-0.815241 0.189665 -0.0327433)
(-0.832605 0.194775 -0.0312101)
(-0.830084 0.196868 -0.03451)
(-0.825617 0.193856 -0.0355968)
(-0.820289 0.191641 -0.0347042)
(-0.815241 0.196332 -0.0327433)
(-0.832605 0.201441 -0.0312101)
(-0.830084 0.203535 -0.03451)
(-0.825617 0.200523 -0.0355968)
(-0.820289 0.198308 -0.0347042)
(-0.815241 0.202998 -0.0327433)
(-0.832605 0.208108 -0.0312101)
(-0.830084 0.210202 -0.03451)
(-0.825617 0.20719 -0.0355968)
(-0.820289 0.204974 -0.0347042)
(-0.815241 0.209665 -0.0327433)
(-0.832605 0.214775 -0.0312101)
(-0.830084 0.216868 -0.03451)
(-0.825617 0.213856 -0.0355968)
(-0.820289 0.211641 -0.0347042)
(-0.815241 0.216332 -0.0327433)
(-0.832605 0.221441 -0.0312101)
(-0.830084 0.223535 -0.03451)
(-0.825617 0.220523 -0.0355968)
(-0.820289 0.218308 -0.0347042)
(-0.815241 0.222998 -0.0327433)
(-0.832605 0.228108 -0.0312101)
(-0.830084 0.230202 -0.03451)
(-0.825617 0.22719 -0.0355968)
(-0.820289 0.224974 -0.0347042)
(-0.815241 0.229665 -0.0327433)
(-0.832605 0.234775 -0.0312101)
(-0.830084 0.236868 -0.03451)
(-0.825617 0.233856 -0.0355968)
(-0.820289 0.231641 -0.0347042)
(-0.815241 0.236332 -0.0327433)
(-0.832605 0.241441 -0.0312102)
(-0.830084 0.243535 -0.03451)
(-0.825617 0.240523 -0.0355968)
(-0.820289 0.238308 -0.0347042)
(-0.815241 0.242998 -0.0327434)
(-0.832605 0.248108 -0.0312102)
(-0.830084 0.250202 -0.0345101)
(-0.825617 0.24719 -0.0355969)
(-0.820289 0.244974 -0.0347043)
(-0.815241 0.249665 -0.0327436)
(-0.832605 0.254776 -0.0312102)
(-0.830085 0.25687 -0.0345103)
(-0.825617 0.253858 -0.035597)
(-0.820289 0.251642 -0.0347043)
(-0.815241 0.256333 -0.0327428)
(-0.832604 0.261442 -0.0312096)
(-0.830083 0.263532 -0.0345105)
(-0.825618 0.260524 -0.0355977)
(-0.82029 0.258309 -0.0347038)
(-0.815243 0.262995 -0.0327395)
(-0.832598 0.268094 -0.0312042)
(-0.830073 0.270174 -0.0345021)
(-0.825616 0.267175 -0.0355979)
(-0.820292 0.264967 -0.034703)
(-0.815242 0.269642 -0.0327394)
(-0.832599 0.274743 -0.0311839)
(-0.830069 0.276851 -0.0344733)
(-0.825599 0.273817 -0.035589)
(-0.820284 0.271608 -0.0347042)
(-0.815222 0.276316 -0.0327656)
(-0.832664 0.281511 -0.0311823)
(-0.830143 0.283736 -0.0344676)
(-0.825589 0.280578 -0.0355692)
(-0.820254 0.278305 -0.0347144)
(-0.815179 0.28316 -0.0328476)
(-0.832841 0.288496 -0.031371)
(-0.83034 0.290785 -0.0345634)
(-0.825673 0.287598 -0.0355533)
(-0.820247 0.285223 -0.0347435)
(-0.815231 0.290186 -0.0329429)
(-0.832951 0.295151 -0.0319197)
(-0.830421 0.297146 -0.0344836)
(-0.825846 0.294496 -0.0353558)
(-0.820374 0.292222 -0.0347033)
(-0.815665 0.296635 -0.0328216)
(-0.825747 0.300178 -0.034134)
(-0.820476 0.298299 -0.0340774)
(-0.825713 0.303712 -0.0308842)
(-0.818995 0.302593 -0.0311094)
(-0.830385 -0.28715 -0.0253017)
(-0.825341 -0.28936 -0.0260354)
(-0.819332 -0.289653 -0.0263013)
(-0.81027 -0.283533 -0.0299039)
(-0.811928 -0.287816 -0.0269494)
(-0.805292 -0.284485 -0.0285681)
(-0.8034 -0.28798 -0.0250914)
(-0.799156 -0.285173 -0.027781)
(-0.796988 -0.288189 -0.0245829)
(-0.791855 -0.28772 -0.0240759)
(-0.789047 -0.283812 -0.025325)
(-0.833353 -0.279941 -0.026371)
(-0.810776 -0.27863 -0.0309616)
(-0.805313 -0.279056 -0.029763)
(-0.799508 -0.279894 -0.0290262)
(-0.794123 -0.281489 -0.0278887)
(-0.789012 -0.277095 -0.0263688)
(-0.833259 -0.273323 -0.0266106)
(-0.810578 -0.271944 -0.0310519)
(-0.805213 -0.272542 -0.0298563)
(-0.799348 -0.273264 -0.0291015)
(-0.793868 -0.274924 -0.0280723)
(-0.788844 -0.270079 -0.0262707)
(-0.833143 -0.266352 -0.0265648)
(-0.810423 -0.265063 -0.0308948)
(-0.805091 -0.265663 -0.0296831)
(-0.799234 -0.266333 -0.0288804)
(-0.7937 -0.267924 -0.027824)
(-0.788784 -0.263197 -0.0260862)
(-0.833117 -0.259576 -0.0265039)
(-0.810399 -0.258335 -0.0308205)
(-0.805059 -0.258901 -0.0295862)
(-0.799211 -0.259535 -0.0287584)
(-0.793667 -0.261085 -0.0276618)
(-0.788791 -0.256503 -0.0260369)
(-0.833123 -0.252915 -0.026488)
(-0.810414 -0.251681 -0.0308162)
(-0.805071 -0.252237 -0.0295742)
(-0.799223 -0.25286 -0.0287413)
(-0.793682 -0.254403 -0.0276343)
(-0.788802 -0.249856 -0.026047)
(-0.833125 -0.24626 -0.0264899)
(-0.81042 -0.245024 -0.0308227)
(-0.805079 -0.245583 -0.0295818)
(-0.799232 -0.246207 -0.0287508)
(-0.793692 -0.247752 -0.0276461)
(-0.788803 -0.243198 -0.0260553)
(-0.833125 -0.239594 -0.0264916)
(-0.810419 -0.238357 -0.0308243)
(-0.805079 -0.238918 -0.0295847)
(-0.799233 -0.239544 -0.0287552)
(-0.793693 -0.241091 -0.0276524)
(-0.788802 -0.236531 -0.0260561)
(-0.833125 -0.232927 -0.0264917)
(-0.810419 -0.23169 -0.0308241)
(-0.805079 -0.23225 -0.0295846)
(-0.799233 -0.232876 -0.0287552)
(-0.793692 -0.234424 -0.0276526)
(-0.788802 -0.229863 -0.0260555)
(-0.833125 -0.22626 -0.0264916)
(-0.810419 -0.225023 -0.0308239)
(-0.805079 -0.225583 -0.0295844)
(-0.799232 -0.226209 -0.0287549)
(-0.793692 -0.227757 -0.0276522)
(-0.788802 -0.223197 -0.0260553)
(-0.833125 -0.219593 -0.0264916)
(-0.810419 -0.218356 -0.0308239)
(-0.805079 -0.218917 -0.0295844)
(-0.799232 -0.219543 -0.0287548)
(-0.793692 -0.22109 -0.0276521)
(-0.788802 -0.21653 -0.0260553)
(-0.833125 -0.212927 -0.0264916)
(-0.810419 -0.21169 -0.0308239)
(-0.805079 -0.21225 -0.0295844)
(-0.799232 -0.212876 -0.0287549)
(-0.793692 -0.214423 -0.0276521)
(-0.788802 -0.209863 -0.0260554)
(-0.833125 -0.20626 -0.0264916)
(-0.810419 -0.205023 -0.0308239)
(-0.805079 -0.205583 -0.0295844)
(-0.799232 -0.206209 -0.0287549)
(-0.793692 -0.207757 -0.0276521)
(-0.788802 -0.203197 -0.0260554)
(-0.833125 -0.199593 -0.0264916)
(-0.810419 -0.198356 -0.0308239)
(-0.805079 -0.198917 -0.0295844)
(-0.799232 -0.199543 -0.0287549)
(-0.793692 -0.20109 -0.0276521)
(-0.788802 -0.19653 -0.0260554)
(-0.833125 -0.192927 -0.0264916)
(-0.810419 -0.19169 -0.0308239)
(-0.805079 -0.19225 -0.0295844)
(-0.799232 -0.192876 -0.0287549)
(-0.793692 -0.194423 -0.0276521)
(-0.788802 -0.189863 -0.0260554)
(-0.833125 -0.18626 -0.0264916)
(-0.810419 -0.185023 -0.0308239)
(-0.805079 -0.185583 -0.0295844)
(-0.799232 -0.186209 -0.0287549)
(-0.793692 -0.187757 -0.0276521)
(-0.788802 -0.183197 -0.0260554)
(-0.833125 -0.179593 -0.0264916)
(-0.810419 -0.178356 -0.0308239)
(-0.805079 -0.178917 -0.0295844)
(-0.799232 -0.179543 -0.0287549)
(-0.793692 -0.18109 -0.0276521)
(-0.788802 -0.17653 -0.0260554)
(-0.833125 -0.172927 -0.0264916)
(-0.810419 -0.17169 -0.0308239)
(-0.805079 -0.17225 -0.0295844)
(-0.799232 -0.172876 -0.0287549)
(-0.793692 -0.174423 -0.0276521)
(-0.788802 -0.169863 -0.0260554)
(-0.833125 -0.16626 -0.0264916)
(-0.810419 -0.165023 -0.0308239)
(-0.805079 -0.165583 -0.0295844)
(-0.799232 -0.166209 -0.0287549)
(-0.793692 -0.167757 -0.0276521)
(-0.788802 -0.163197 -0.0260554)
(-0.833125 -0.159593 -0.0264916)
(-0.810419 -0.158356 -0.0308239)
(-0.805079 -0.158917 -0.0295844)
(-0.799232 -0.159543 -0.0287549)
(-0.793692 -0.16109 -0.0276521)
(-0.788802 -0.15653 -0.0260554)
(-0.833125 -0.152927 -0.0264916)
(-0.810419 -0.15169 -0.0308239)
(-0.805079 -0.15225 -0.0295844)
(-0.799232 -0.152876 -0.0287549)
(-0.793692 -0.154423 -0.0276521)
(-0.788802 -0.149863 -0.0260554)
(-0.833125 -0.14626 -0.0264916)
(-0.810419 -0.145023 -0.0308239)
(-0.805079 -0.145583 -0.0295844)
(-0.799232 -0.146209 -0.0287549)
(-0.793692 -0.147757 -0.0276521)
(-0.788802 -0.143197 -0.0260554)
(-0.833125 -0.139593 -0.0264916)
(-0.810419 -0.138356 -0.0308239)
(-0.805079 -0.138917 -0.0295844)
(-0.799232 -0.139543 -0.0287549)
(-0.793692 -0.14109 -0.0276521)
(-0.788802 -0.13653 -0.0260554)
(-0.833125 -0.132927 -0.0264916)
(-0.810419 -0.13169 -0.0308239)
(-0.805079 -0.13225 -0.0295844)
(-0.799232 -0.132876 -0.0287549)
(-0.793692 -0.134423 -0.0276521)
(-0.788802 -0.129863 -0.0260554)
(-0.833125 -0.12626 -0.0264916)
(-0.810419 -0.125023 -0.0308239)
(-0.805079 -0.125583 -0.0295844)
(-0.799232 -0.126209 -0.0287549)
(-0.793692 -0.127757 -0.0276521)
(-0.788802 -0.123197 -0.0260554)
(-0.833125 -0.119593 -0.0264916)
(-0.810419 -0.118356 -0.0308239)
(-0.805079 -0.118917 -0.0295844)
(-0.799232 -0.119543 -0.0287549)
(-0.793692 -0.12109 -0.0276521)
(-0.788802 -0.11653 -0.0260554)
(-0.833125 -0.112927 -0.0264916)
(-0.810419 -0.11169 -0.0308239)
(-0.805079 -0.11225 -0.0295844)
(-0.799232 -0.112876 -0.0287549)
(-0.793692 -0.114423 -0.0276521)
(-0.788802 -0.109863 -0.0260554)
(-0.833125 -0.10626 -0.0264916)
(-0.810419 -0.105023 -0.0308239)
(-0.805079 -0.105583 -0.0295844)
(-0.799232 -0.106209 -0.0287549)
(-0.793692 -0.107757 -0.0276521)
(-0.788802 -0.103197 -0.0260554)
(-0.833125 -0.0995934 -0.0264916)
(-0.810419 -0.0983564 -0.0308239)
(-0.805079 -0.0989167 -0.0295844)
(-0.799232 -0.0995428 -0.0287549)
(-0.793692 -0.10109 -0.0276521)
(-0.788802 -0.09653 -0.0260554)
(-0.833125 -0.0929267 -0.0264916)
(-0.810419 -0.0916897 -0.0308239)
(-0.805079 -0.09225 -0.0295844)
(-0.799232 -0.0928761 -0.0287549)
(-0.793692 -0.0944232 -0.0276521)
(-0.788802 -0.0898633 -0.0260554)
(-0.833125 -0.08626 -0.0264916)
(-0.810419 -0.085023 -0.0308239)
(-0.805079 -0.0855833 -0.0295844)
(-0.799232 -0.0862093 -0.0287549)
(-0.793692 -0.0877565 -0.0276521)
(-0.788802 -0.0831966 -0.0260554)
(-0.833125 -0.0795933 -0.0264916)
(-0.810419 -0.0783564 -0.0308239)
(-0.805079 -0.0789166 -0.0295844)
(-0.799232 -0.0795427 -0.0287549)
(-0.793692 -0.0810898 -0.0276521)
(-0.788802 -0.07653 -0.0260554)
(-0.833125 -0.0729267 -0.0264916)
(-0.810419 -0.0716897 -0.0308239)
(-0.805079 -0.0722499 -0.0295844)
(-0.799232 -0.072876 -0.0287549)
(-0.793692 -0.0744231 -0.0276521)
(-0.788802 -0.0698633 -0.0260554)
(-0.833125 -0.06626 -0.0264916)
(-0.810419 -0.065023 -0.0308239)
(-0.805079 -0.0655833 -0.0295844)
(-0.799232 -0.0662093 -0.0287549)
(-0.793692 -0.0677565 -0.0276521)
(-0.788802 -0.0631966 -0.0260554)
(-0.833125 -0.0595934 -0.0264916)
(-0.810419 -0.0583564 -0.0308239)
(-0.805079 -0.0589166 -0.0295844)
(-0.799232 -0.0595427 -0.0287549)
(-0.793692 -0.0610898 -0.0276521)
(-0.788802 -0.05653 -0.0260554)
(-0.833125 -0.0529267 -0.0264916)
(-0.810419 -0.0516897 -0.0308239)
(-0.805079 -0.0522499 -0.0295844)
(-0.799232 -0.052876 -0.0287549)
(-0.793692 -0.0544231 -0.0276521)
(-0.788802 -0.0498633 -0.0260554)
(-0.833125 -0.04626 -0.0264916)
(-0.810419 -0.045023 -0.0308239)
(-0.805079 -0.0455833 -0.0295844)
(-0.799232 -0.0462093 -0.0287549)
(-0.793692 -0.0477565 -0.0276521)
(-0.788802 -0.0431966 -0.0260554)
(-0.833125 -0.0395934 -0.0264916)
(-0.810419 -0.0383564 -0.0308239)
(-0.805079 -0.0389166 -0.0295844)
(-0.799232 -0.0395427 -0.0287549)
(-0.793692 -0.0410898 -0.0276521)
(-0.788802 -0.03653 -0.0260554)
(-0.833125 -0.0329267 -0.0264916)
(-0.810419 -0.0316897 -0.0308239)
(-0.805079 -0.0322499 -0.0295844)
(-0.799232 -0.032876 -0.0287549)
(-0.793692 -0.0344231 -0.0276521)
(-0.788802 -0.0298633 -0.0260554)
(-0.833125 -0.02626 -0.0264916)
(-0.810419 -0.025023 -0.0308239)
(-0.805079 -0.0255833 -0.0295844)
(-0.799232 -0.0262093 -0.0287549)
(-0.793692 -0.0277565 -0.0276521)
(-0.788802 -0.0231966 -0.0260554)
(-0.833125 -0.0195934 -0.0264916)
(-0.810419 -0.0183564 -0.0308239)
(-0.805079 -0.0189166 -0.0295844)
(-0.799232 -0.0195427 -0.0287549)
(-0.793692 -0.0210898 -0.0276521)
(-0.788802 -0.01653 -0.0260554)
(-0.833125 -0.0129267 -0.0264916)
(-0.810419 -0.0116897 -0.0308239)
(-0.805079 -0.0122499 -0.0295844)
(-0.799232 -0.012876 -0.0287549)
(-0.793692 -0.0144231 -0.0276521)
(-0.788802 -0.00986332 -0.0260554)
(-0.833125 -0.00626004 -0.0264916)
(-0.810419 -0.00502304 -0.0308239)
(-0.805079 -0.00558327 -0.0295844)
(-0.799232 -0.00620936 -0.0287549)
(-0.793692 -0.00775649 -0.0276521)
(-0.788802 -0.00319666 -0.0260554)
(-0.833125 0.000406627 -0.0264916)
(-0.810419 0.00164362 -0.0308239)
(-0.805079 0.0010834 -0.0295844)
(-0.799232 0.000457305 -0.0287549)
(-0.793692 -0.00108983 -0.0276521)
(-0.788802 0.00347001 -0.0260554)
(-0.833125 0.0070733 -0.0264916)
(-0.810419 0.0083103 -0.0308239)
(-0.805079 0.00775007 -0.0295844)
(-0.799232 0.00712398 -0.0287549)
(-0.793692 0.00557684 -0.0276521)
(-0.788802 0.0101367 -0.0260554)
(-0.833125 0.01374 -0.0264916)
(-0.810419 0.014977 -0.0308239)
(-0.805079 0.0144167 -0.0295844)
(-0.799232 0.0137907 -0.0287549)
(-0.793692 0.0122435 -0.0276521)
(-0.788802 0.0168034 -0.0260554)
(-0.833125 0.0204066 -0.0264916)
(-0.810419 0.0216436 -0.0308239)
(-0.805079 0.0210834 -0.0295844)
(-0.799232 0.0204573 -0.0287549)
(-0.793692 0.0189102 -0.0276521)
(-0.788802 0.02347 -0.0260554)
(-0.833125 0.0270733 -0.0264916)
(-0.810419 0.0283103 -0.0308239)
(-0.805079 0.0277501 -0.0295844)
(-0.799232 0.027124 -0.0287549)
(-0.793692 0.0255769 -0.0276521)
(-0.788802 0.0301367 -0.0260554)
(-0.833125 0.03374 -0.0264916)
(-0.810419 0.034977 -0.0308239)
(-0.805079 0.0344167 -0.0295844)
(-0.799232 0.0337907 -0.0287549)
(-0.793692 0.0322435 -0.0276521)
(-0.788802 0.0368034 -0.0260554)
(-0.833125 0.0404066 -0.0264916)
(-0.810419 0.0416436 -0.0308239)
(-0.805079 0.0410834 -0.0295844)
(-0.799232 0.0404573 -0.0287549)
(-0.793692 0.0389102 -0.0276521)
(-0.788802 0.04347 -0.0260554)
(-0.833125 0.0470733 -0.0264916)
(-0.810419 0.0483103 -0.0308239)
(-0.805079 0.0477501 -0.0295844)
(-0.799232 0.047124 -0.0287549)
(-0.793692 0.0455769 -0.0276521)
(-0.788802 0.0501367 -0.0260554)
(-0.833125 0.05374 -0.0264916)
(-0.810419 0.054977 -0.0308239)
(-0.805079 0.0544167 -0.0295844)
(-0.799232 0.0537907 -0.0287549)
(-0.793692 0.0522435 -0.0276521)
(-0.788802 0.0568034 -0.0260554)
(-0.833125 0.0604066 -0.0264916)
(-0.810419 0.0616436 -0.0308239)
(-0.805079 0.0610834 -0.0295844)
(-0.799232 0.0604573 -0.0287549)
(-0.793692 0.0589102 -0.0276521)
(-0.788802 0.06347 -0.0260554)
(-0.833125 0.0670733 -0.0264916)
(-0.810419 0.0683103 -0.0308239)
(-0.805079 0.0677501 -0.0295844)
(-0.799232 0.067124 -0.0287549)
(-0.793692 0.0655769 -0.0276521)
(-0.788802 0.0701367 -0.0260554)
(-0.833125 0.07374 -0.0264916)
(-0.810419 0.074977 -0.0308239)
(-0.805079 0.0744167 -0.0295844)
(-0.799232 0.0737907 -0.0287549)
(-0.793692 0.0722435 -0.0276521)
(-0.788802 0.0768034 -0.0260554)
(-0.833125 0.0804066 -0.0264916)
(-0.810419 0.0816436 -0.0308239)
(-0.805079 0.0810834 -0.0295844)
(-0.799232 0.0804573 -0.0287549)
(-0.793692 0.0789102 -0.0276521)
(-0.788802 0.08347 -0.0260554)
(-0.833125 0.0870733 -0.0264916)
(-0.810419 0.0883103 -0.0308239)
(-0.805079 0.0877501 -0.0295844)
(-0.799232 0.087124 -0.0287549)
(-0.793692 0.0855768 -0.0276521)
(-0.788802 0.0901367 -0.0260554)
(-0.833125 0.09374 -0.0264916)
(-0.810419 0.094977 -0.0308239)
(-0.805079 0.0944168 -0.0295844)
(-0.799232 0.0937907 -0.0287549)
(-0.793692 0.0922435 -0.0276521)
(-0.788802 0.0968034 -0.0260554)
(-0.833125 0.100407 -0.0264916)
(-0.810419 0.101644 -0.0308239)
(-0.805079 0.101083 -0.0295844)
(-0.799232 0.100457 -0.0287549)
(-0.793692 0.0989102 -0.0276521)
(-0.788802 0.10347 -0.0260554)
(-0.833125 0.107073 -0.0264916)
(-0.810419 0.10831 -0.0308239)
(-0.805079 0.10775 -0.0295844)
(-0.799232 0.107124 -0.0287549)
(-0.793692 0.105577 -0.0276521)
(-0.788802 0.110137 -0.0260554)
(-0.833125 0.11374 -0.0264916)
(-0.810419 0.114977 -0.0308239)
(-0.805079 0.114417 -0.0295844)
(-0.799232 0.113791 -0.0287549)
(-0.793692 0.112243 -0.0276521)
(-0.788802 0.116803 -0.0260554)
(-0.833125 0.120407 -0.0264916)
(-0.810419 0.121644 -0.0308239)
(-0.805079 0.121083 -0.0295844)
(-0.799232 0.120457 -0.0287549)
(-0.793692 0.11891 -0.0276521)
(-0.788802 0.12347 -0.0260554)
(-0.833125 0.127073 -0.0264916)
(-0.810419 0.12831 -0.0308239)
(-0.805079 0.12775 -0.0295844)
(-0.799232 0.127124 -0.0287549)
(-0.793692 0.125577 -0.0276521)
(-0.788802 0.130137 -0.0260554)
(-0.833125 0.13374 -0.0264916)
(-0.810419 0.134977 -0.0308239)
(-0.805079 0.134417 -0.0295844)
(-0.799232 0.133791 -0.0287549)
(-0.793692 0.132243 -0.0276521)
(-0.788802 0.136803 -0.0260554)
(-0.833125 0.140407 -0.0264916)
(-0.810419 0.141644 -0.0308239)
(-0.805079 0.141083 -0.0295844)
(-0.799232 0.140457 -0.0287549)
(-0.793692 0.13891 -0.0276521)
(-0.788802 0.14347 -0.0260554)
(-0.833125 0.147073 -0.0264916)
(-0.810419 0.14831 -0.0308239)
(-0.805079 0.14775 -0.0295844)
(-0.799232 0.147124 -0.0287549)
(-0.793692 0.145577 -0.0276521)
(-0.788802 0.150137 -0.0260554)
(-0.833125 0.15374 -0.0264916)