/*--------------------------------*- C++ -*----------------------------------*\
  =========                 |
  \\      /  F ield         | OpenFOAM: The Open Source CFD Toolbox
   \\    /   O peration     | Website:  https://openfoam.org
    \\  /    A nd           | Version:  13
     \\/     M anipulation  |
\*---------------------------------------------------------------------------*/
FoamFile
{
    format      ascii;
    class       extendedFeatureEdgeMesh;
    location    "constant/extendedFeatureEdgeMesh";
    object      horizontalStabiliser.extendedFeatureEdgeMesh;
}
// * * * * * * * * * * * * * * * * * * * * * * * * * * * * * * * * * * * * * //

// points

10950
(
(-0.857827 -0.30726 -0.0334514)
(-0.860091 -0.304464 -0.0356969)
(-0.859971 0.30488 -0.0353427)
(-0.858424 0.305265 -0.0359203)
(-0.856477 0.306321 -0.0349389)
(-0.834031 -0.305998 -0.0297218)
(-0.829715 0.306324 -0.0284619)
(-0.856249 0.308381 -0.0290497)
(-0.858336 -0.305476 -0.0269896)
(-0.813278 -0.306148 -0.0236372)
(-0.854115 0.306484 -0.0231259)
(-0.80855 0.30623 -0.0224234)
(-0.793366 -0.306069 -0.0166448)
(-0.668426 -0.305285 -0.0161977)
(-0.619963 -0.305965 -0.0169416)
(-0.788958 0.306372 -0.0152574)
(-0.663142 0.306776 -0.0164352)
(-0.615243 0.306435 -0.0156727)
(-0.844962 -0.305374 -0.0129705)
(-0.713668 -0.305059 -0.00864433)
(-0.603904 -0.307686 -0.00718498)
(-0.840809 0.30613 -0.00924126)
(-0.776314 0.305977 -0.00781539)
(-0.709016 0.306693 -0.00932117)
(-0.601819 0.306102 -0.00876385)
(-0.760685 -0.305372 -0.00208961)
(-0.598242 -0.304931 -0.0046789)
(-0.598474 -0.157896 -0.00472224)
(-0.755965 0.306608 -0.00271067)
(-0.597662 0.306786 -0.000609637)
(-0.600183 0.308434 -0.00271321)
(-0.597579 -0.305687 0.00205009)
(-0.597905 -0.166743 0.000764798)
(-0.824965 -0.305345 0.00725388)
(-0.601293 -0.305158 0.0114362)
(-0.598484 -0.167574 0.00577134)
(-0.820952 0.306164 0.010533)
(-0.598283 0.306037 0.00638699)
(-0.607829 -0.305163 0.0183265)
(-0.603916 0.306137 0.0140156)
(-0.79871 -0.307715 0.0223095)
(-0.615079 -0.305172 0.0240774)
(-0.800247 0.306126 0.0238332)
(-0.610842 0.306089 0.0203535)
(-0.628311 -0.305276 0.0308226)
(-0.623904 0.306197 0.0278556)
(-0.645576 -0.302357 0.0386319)
(-0.637397 0.306309 0.0343102)
(-0.706999 0.306237 0.0436984)
(-0.860568 -0.305025 -0.0328482)
(-0.85583 -0.304331 -0.0348886)
(-0.861767 -0.299935 -0.0343449)
(-0.859965 -0.299699 -0.0365187)
(-0.855959 -0.297749 -0.0359515)
(-0.86189 -0.293335 -0.0346379)
(-0.859773 -0.292988 -0.0366505)
(-0.855759 -0.29084 -0.0359564)
(-0.861802 -0.286389 -0.034551)
(-0.859624 -0.286112 -0.0365323)
(-0.855657 -0.284037 -0.0358523)
(-0.861753 -0.279615 -0.034471)
(-0.859588 -0.279393 -0.0364709)
(-0.85565 -0.27736 -0.0358211)
(-0.861753 -0.272952 -0.0344558)
(-0.859597 -0.272738 -0.0364659)
(-0.85566 -0.270705 -0.0358234)
(-0.861761 -0.266296 -0.0344604)
(-0.859603 -0.266078 -0.0364704)
(-0.855663 -0.264041 -0.0358266)
(-0.861762 -0.259631 -0.0344627)
(-0.859603 -0.259411 -0.0364716)
(-0.855662 -0.257374 -0.0358269)
(-0.861762 -0.252964 -0.0344627)
(-0.859602 -0.252744 -0.0364715)
(-0.855662 -0.250707 -0.0358267)
(-0.861761 -0.246297 -0.0344626)
(-0.859602 -0.246077 -0.0364714)
(-0.855662 -0.24404 -0.0358266)
(-0.861761 -0.23963 -0.0344625)
(-0.859602 -0.239411 -0.0364714)
(-0.855662 -0.237374 -0.0358266)
(-0.861761 -0.232964 -0.0344625)
(-0.859602 -0.232744 -0.0364714)
(-0.855662 -0.230707 -0.0358266)
(-0.861761 -0.226297 -0.0344626)
(-0.859602 -0.226077 -0.0364714)
(-0.855662 -0.22404 -0.0358266)
(-0.861761 -0.21963 -0.0344626)
(-0.859602 -0.219411 -0.0364714)
(-0.855662 -0.217374 -0.0358266)
(-0.861761 -0.212964 -0.0344626)
(-0.859602 -0.212744 -0.0364714)
(-0.855662 -0.210707 -0.0358266)
(-0.861761 -0.206297 -0.0344626)
(-0.859602 -0.206077 -0.0364714)
(-0.855662 -0.20404 -0.0358266)
(-0.861761 -0.19963 -0.0344626)
(-0.859602 -0.199411 -0.0364714)
(-0.855662 -0.197374 -0.0358266)
(-0.861761 -0.192964 -0.0344626)
(-0.859602 -0.192744 -0.0364714)
(-0.855662 -0.190707 -0.0358266)
(-0.861761 -0.186297 -0.0344626)
(-0.859602 -0.186077 -0.0364714)
(-0.855662 -0.18404 -0.0358266)
(-0.861761 -0.17963 -0.0344626)
(-0.859602 -0.179411 -0.0364714)
(-0.855662 -0.177374 -0.0358266)
(-0.861761 -0.172964 -0.0344626)
(-0.859602 -0.172744 -0.0364714)
(-0.855662 -0.170707 -0.0358266)
(-0.861761 -0.166297 -0.0344626)
(-0.859602 -0.166077 -0.0364714)
(-0.855662 -0.16404 -0.0358266)
(-0.861761 -0.15963 -0.0344626)
(-0.859602 -0.159411 -0.0364714)
(-0.855662 -0.157374 -0.0358266)
(-0.861761 -0.152964 -0.0344626)
(-0.859602 -0.152744 -0.0364714)
(-0.855662 -0.150707 -0.0358266)
(-0.861761 -0.146297 -0.0344626)
(-0.859602 -0.146077 -0.0364714)
(-0.855662 -0.14404 -0.0358266)
(-0.861761 -0.13963 -0.0344626)
(-0.859602 -0.139411 -0.0364714)
(-0.855662 -0.137374 -0.0358266)
(-0.861761 -0.132964 -0.0344626)
(-0.859602 -0.132744 -0.0364714)
(-0.855662 -0.130707 -0.0358266)
(-0.861761 -0.126297 -0.0344626)
(-0.859602 -0.126077 -0.0364714)
(-0.855662 -0.12404 -0.0358266)
(-0.861761 -0.11963 -0.0344626)
(-0.859602 -0.119411 -0.0364714)
(-0.855662 -0.117374 -0.0358266)
(-0.861761 -0.112964 -0.0344626)
(-0.859602 -0.112744 -0.0364714)
(-0.855662 -0.110707 -0.0358266)
(-0.861761 -0.106297 -0.0344626)
(-0.859602 -0.106077 -0.0364714)
(-0.855662 -0.10404 -0.0358266)
(-0.861761 -0.0996305 -0.0344626)
(-0.859602 -0.0994108 -0.0364714)
(-0.855662 -0.0973738 -0.0358266)
(-0.861761 -0.0929639 -0.0344626)
(-0.859602 -0.0927441 -0.0364714)
(-0.855662 -0.0907071 -0.0358266)
(-0.861761 -0.0862972 -0.0344626)
(-0.859602 -0.0860775 -0.0364714)
(-0.855662 -0.0840405 -0.0358266)
(-0.861761 -0.0796305 -0.0344626)
(-0.859602 -0.0794108 -0.0364714)
(-0.855662 -0.0773738 -0.0358266)
(-0.861761 -0.0729639 -0.0344626)
(-0.859602 -0.0727442 -0.0364714)
(-0.855662 -0.0707072 -0.0358266)
(-0.861761 -0.0662972 -0.0344626)
(-0.859602 -0.0660775 -0.0364714)
(-0.855662 -0.0640405 -0.0358266)
(-0.861761 -0.0596305 -0.0344626)
(-0.859602 -0.0594108 -0.0364714)
(-0.855662 -0.0573738 -0.0358266)
(-0.861761 -0.0529639 -0.0344626)
(-0.859602 -0.0527442 -0.0364714)
(-0.855662 -0.0507072 -0.0358266)
(-0.861761 -0.0462972 -0.0344626)
(-0.859602 -0.0460775 -0.0364714)
(-0.855662 -0.0440405 -0.0358266)
(-0.861761 -0.0396305 -0.0344626)
(-0.859602 -0.0394108 -0.0364714)
(-0.855662 -0.0373738 -0.0358266)
(-0.861761 -0.0329639 -0.0344626)
(-0.859602 -0.0327442 -0.0364714)
(-0.855662 -0.0307072 -0.0358266)
(-0.861761 -0.0262972 -0.0344626)
(-0.859602 -0.0260775 -0.0364714)
(-0.855662 -0.0240405 -0.0358266)
(-0.861761 -0.0196305 -0.0344626)
(-0.859602 -0.0194108 -0.0364714)
(-0.855662 -0.0173738 -0.0358266)
(-0.861761 -0.0129638 -0.0344626)
(-0.859602 -0.0127441 -0.0364714)
(-0.855662 -0.0107071 -0.0358266)
(-0.861761 -0.00629718 -0.0344626)
(-0.859602 -0.00607747 -0.0364714)
(-0.855662 -0.00404047 -0.0358266)
(-0.861761 0.000369483 -0.0344626)
(-0.859602 0.00058919 -0.0364714)
(-0.855662 0.00262619 -0.0358266)
(-0.861761 0.00703614 -0.0344626)
(-0.859602 0.00725584 -0.0364714)
(-0.855662 0.00929284 -0.0358266)
(-0.861761 0.0137028 -0.0344626)
(-0.859602 0.0139225 -0.0364714)
(-0.855662 0.0159595 -0.0358266)
(-0.861761 0.0203695 -0.0344626)
(-0.859602 0.0205892 -0.0364714)
(-0.855662 0.0226262 -0.0358266)
(-0.861761 0.0270361 -0.0344626)
(-0.859602 0.0272558 -0.0364714)
(-0.855662 0.0292928 -0.0358266)
(-0.861761 0.0337028 -0.0344626)
(-0.859602 0.0339225 -0.0364714)
(-0.855662 0.0359595 -0.0358266)
(-0.861761 0.0403695 -0.0344626)
(-0.859602 0.0405892 -0.0364714)
(-0.855662 0.0426262 -0.0358266)
(-0.861761 0.0470361 -0.0344626)
(-0.859602 0.0472558 -0.0364714)
(-0.855662 0.0492928 -0.0358266)
(-0.861761 0.0537028 -0.0344626)
(-0.859602 0.0539225 -0.0364714)
(-0.855662 0.0559595 -0.0358266)
(-0.861761 0.0603695 -0.0344626)
(-0.859602 0.0605892 -0.0364714)
(-0.855662 0.0626262 -0.0358266)
(-0.861761 0.0670361 -0.0344626)
(-0.859602 0.0672558 -0.0364714)
(-0.855662 0.0692928 -0.0358266)
(-0.861761 0.0737028 -0.0344626)
(-0.859602 0.0739225 -0.0364714)
(-0.855662 0.0759595 -0.0358266)
(-0.861761 0.0803695 -0.0344626)
(-0.859602 0.0805892 -0.0364714)
(-0.855662 0.0826262 -0.0358266)
(-0.861761 0.0870362 -0.0344626)
(-0.859602 0.0872559 -0.0364714)
(-0.855662 0.0892929 -0.0358266)
(-0.861761 0.0937029 -0.0344626)
(-0.859602 0.0939226 -0.0364714)
(-0.855662 0.0959596 -0.0358266)
(-0.861761 0.10037 -0.0344626)
(-0.859602 0.100589 -0.0364714)
(-0.855662 0.102626 -0.0358266)
(-0.861761 0.107036 -0.0344626)
(-0.859602 0.107256 -0.0364714)
(-0.855662 0.109293 -0.0358266)
(-0.861761 0.113703 -0.0344626)
(-0.859602 0.113923 -0.0364714)
(-0.855662 0.11596 -0.0358266)
(-0.861761 0.12037 -0.0344626)
(-0.859602 0.120589 -0.0364714)
(-0.855662 0.122626 -0.0358266)
(-0.861761 0.127036 -0.0344626)
(-0.859602 0.127256 -0.0364714)
(-0.855662 0.129293 -0.0358266)
(-0.861761 0.133703 -0.0344626)
(-0.859602 0.133923 -0.0364714)
(-0.855662 0.13596 -0.0358266)
(-0.861761 0.14037 -0.0344626)
(-0.859602 0.140589 -0.0364714)
(-0.855662 0.142626 -0.0358266)
(-0.861761 0.147036 -0.0344626)
(-0.859602 0.147256 -0.0364714)
(-0.855662 0.149293 -0.0358266)
(-0.861761 0.153703 -0.0344626)
(-0.859602 0.153923 -0.0364714)
(-0.855662 0.15596 -0.0358266)
(-0.861761 0.16037 -0.0344626)
(-0.859602 0.160589 -0.0364714)
(-0.855662 0.162626 -0.0358266)
(-0.861761 0.167036 -0.0344626)
(-0.859602 0.167256 -0.0364714)
(-0.855662 0.169293 -0.0358266)
(-0.861761 0.173703 -0.0344626)
(-0.859602 0.173923 -0.0364714)
(-0.855662 0.17596 -0.0358266)
(-0.861761 0.18037 -0.0344626)
(-0.859602 0.180589 -0.0364714)
(-0.855662 0.182626 -0.0358266)
(-0.861761 0.187036 -0.0344626)
(-0.859602 0.187256 -0.0364714)
(-0.855662 0.189293 -0.0358266)
(-0.861761 0.193703 -0.0344626)
(-0.859602 0.193923 -0.0364714)
(-0.855662 0.19596 -0.0358266)
(-0.861761 0.20037 -0.0344626)
(-0.859602 0.200589 -0.0364714)
(-0.855662 0.202626 -0.0358266)
(-0.861761 0.207036 -0.0344626)
(-0.859602 0.207256 -0.0364714)
(-0.855662 0.209293 -0.0358266)
(-0.861761 0.213703 -0.0344626)
(-0.859602 0.213923 -0.0364714)
(-0.855662 0.21596 -0.0358266)
(-0.861761 0.22037 -0.0344626)
(-0.859602 0.220589 -0.0364714)
(-0.855662 0.222626 -0.0358266)
(-0.861761 0.227036 -0.0344626)
(-0.859602 0.227256 -0.0364714)
(-0.855662 0.229293 -0.0358266)
(-0.861761 0.233703 -0.0344626)
(-0.859602 0.233923 -0.0364714)
(-0.855662 0.23596 -0.0358266)
(-0.861761 0.24037 -0.0344625)
(-0.859602 0.240589 -0.0364713)
(-0.855662 0.242626 -0.0358266)
(-0.861762 0.247036 -0.0344625)
(-0.859602 0.247256 -0.0364713)
(-0.855662 0.249293 -0.0358267)
(-0.861762 0.253703 -0.0344627)
(-0.859602 0.253923 -0.0364718)
(-0.855662 0.255961 -0.0358271)
(-0.861761 0.260371 -0.0344639)
(-0.859601 0.260591 -0.0364729)
(-0.85566 0.262628 -0.0358272)
(-0.861758 0.267036 -0.0344631)
(-0.8596 0.267252 -0.0364707)
(-0.855661 0.269279 -0.0358255)
(-0.861764 0.273688 -0.0344499)
(-0.859613 0.273894 -0.0364558)
(-0.855673 0.275915 -0.0358216)
(-0.861798 0.280346 -0.0344213)
(-0.859643 0.28057 -0.0364268)
(-0.85569 0.282656 -0.0358221)
(-0.861825 0.287138 -0.0344322)
(-0.859639 0.287468 -0.0364251)
(-0.855696 0.289717 -0.0358402)
(-0.861669 0.29412 -0.0346206)
(-0.859496 0.294591 -0.0365091)
(-0.855728 0.296915 -0.0358215)
(-0.861095 0.300631 -0.0350552)
(-0.859135 0.301069 -0.0365289)
(-0.855951 0.303106 -0.0355041)
(-0.857092 0.30759 -0.0331691)
(-0.856997 -0.307323 -0.0288127)
(-0.859955 -0.304764 -0.0292515)
(-0.849988 -0.30438 -0.0329197)
(-0.851151 -0.307945 -0.0299233)
(-0.844716 -0.305068 -0.0314969)
(-0.842778 -0.308306 -0.0281929)
(-0.838608 -0.305443 -0.0306905)
(-0.836427 -0.308193 -0.0277143)
(-0.83142 -0.307599 -0.0271539)
(-0.828871 -0.303975 -0.0282127)
(-0.861083 -0.300337 -0.0301061)
(-0.850722 -0.299591 -0.0340172)
(-0.844774 -0.299795 -0.0326096)
(-0.838972 -0.300366 -0.0317746)
(-0.833888 -0.301799 -0.0306076)
(-0.829118 -0.29752 -0.0290495)
(-0.861527 -0.293681 -0.0303923)
(-0.850637 -0.292947 -0.0341665)
(-0.844683 -0.293313 -0.0327402)
(-0.83879 -0.293795 -0.0318352)
(-0.83373 -0.295381 -0.0307052)
(-0.829052 -0.290563 -0.02891)
(-0.86158 -0.286621 -0.0303526)
(-0.850503 -0.286093 -0.0340561)
(-0.844555 -0.286433 -0.0326237)
(-0.838642 -0.286846 -0.0316697)
(-0.833567 -0.288388 -0.0304848)
(-0.828997 -0.283661 -0.0287463)
(-0.86155 -0.279782 -0.0302801)
(-0.850472 -0.279374 -0.0339955)
(-0.844512 -0.279665 -0.0325464)
(-0.838599 -0.280028 -0.0315766)
(-0.833514 -0.281521 -0.0303564)
(-0.828992 -0.276951 -0.0287063)
(-0.86154 -0.273107 -0.0302586)
(-0.85048 -0.272716 -0.0339892)
(-0.844518 -0.272997 -0.0325314)
(-0.838605 -0.273347 -0.0315581)
(-0.833519 -0.274828 -0.0303324)
(-0.829 -0.270304 -0.028713)
(-0.861544 -0.266457 -0.0302613)
(-0.850486 -0.266056 -0.0339935)
(-0.844525 -0.266341 -0.0325355)
(-0.838613 -0.266693 -0.0315625)
(-0.833528 -0.268178 -0.0303386)
(-0.829002 -0.263648 -0.0287192)
(-0.861546 -0.259793 -0.0302643)
(-0.850486 -0.25939 -0.0339948)
(-0.844526 -0.259676 -0.0325379)
(-0.838615 -0.26003 -0.0315659)
(-0.83353 -0.261518 -0.0303431)
(-0.829002 -0.256981 -0.0287202)
(-0.861546 -0.253126 -0.0302647)
(-0.850485 -0.252723 -0.0339946)
(-0.844525 -0.253009 -0.032538)
(-0.838614 -0.253363 -0.0315662)
(-0.83353 -0.254851 -0.0303438)
(-0.829001 -0.250313 -0.0287198)
(-0.861546 -0.246459 -0.0302645)
(-0.850485 -0.246056 -0.0339945)
(-0.844525 -0.246342 -0.0325378)
(-0.838614 -0.246696 -0.031566)
(-0.833529 -0.248183 -0.0303435)
(-0.829001 -0.243647 -0.0287197)
(-0.861546 -0.239792 -0.0302644)
(-0.850485 -0.239389 -0.0339945)
(-0.844525 -0.239675 -0.0325378)
(-0.838614 -0.240029 -0.031566)
(-0.833529 -0.241517 -0.0303434)
(-0.829001 -0.23698 -0.0287197)
(-0.861546 -0.233126 -0.0302644)
(-0.850485 -0.232723 -0.0339946)
(-0.844525 -0.233008 -0.0325378)
(-0.838614 -0.233362 -0.031566)
(-0.833529 -0.23485 -0.0303434)
(-0.829001 -0.230313 -0.0287197)
(-0.861546 -0.226459 -0.0302644)
(-0.850485 -0.226056 -0.0339946)
(-0.844525 -0.226342 -0.0325378)
(-0.838614 -0.226696 -0.031566)
(-0.833529 -0.228183 -0.0303434)
(-0.829001 -0.223647 -0.0287197)
(-0.861546 -0.219792 -0.0302644)
(-0.850485 -0.219389 -0.0339946)
(-0.844525 -0.219675 -0.0325378)
(-0.838614 -0.220029 -0.031566)
(-0.833529 -0.221517 -0.0303434)
(-0.829001 -0.21698 -0.0287197)
(-0.861546 -0.213126 -0.0302644)
(-0.850485 -0.212723 -0.0339946)
(-0.844525 -0.213008 -0.0325378)
(-0.838614 -0.213362 -0.031566)
(-0.833529 -0.21485 -0.0303434)
(-0.829001 -0.210313 -0.0287197)
(-0.861546 -0.206459 -0.0302644)
(-0.850485 -0.206056 -0.0339946)
(-0.844525 -0.206342 -0.0325378)
(-0.838614 -0.206696 -0.031566)
(-0.833529 -0.208183 -0.0303434)
(-0.829001 -0.203647 -0.0287197)
(-0.861546 -0.199792 -0.0302644)
(-0.850485 -0.199389 -0.0339946)
(-0.844525 -0.199675 -0.0325378)
(-0.838614 -0.200029 -0.031566)
(-0.833529 -0.201517 -0.0303434)
(-0.829001 -0.19698 -0.0287197)
(-0.861546 -0.193126 -0.0302644)
(-0.850485 -0.192723 -0.0339946)
(-0.844525 -0.193008 -0.0325378)
(-0.838614 -0.193362 -0.031566)
(-0.833529 -0.19485 -0.0303434)
(-0.829001 -0.190313 -0.0287197)
(-0.861546 -0.186459 -0.0302644)
(-0.850485 -0.186056 -0.0339946)
(-0.844525 -0.186342 -0.0325378)
(-0.838614 -0.186696 -0.031566)
(-0.833529 -0.188183 -0.0303434)
(-0.829001 -0.183647 -0.0287197)
(-0.861546 -0.179792 -0.0302644)
(-0.850485 -0.179389 -0.0339946)
(-0.844525 -0.179675 -0.0325378)
(-0.838614 -0.180029 -0.031566)
(-0.833529 -0.181517 -0.0303434)
(-0.829001 -0.17698 -0.0287197)
(-0.861546 -0.173126 -0.0302644)
(-0.850485 -0.172723 -0.0339946)
(-0.844525 -0.173008 -0.0325378)
(-0.838614 -0.173362 -0.031566)
(-0.833529 -0.17485 -0.0303434)
(-0.829001 -0.170313 -0.0287197)
(-0.861546 -0.166459 -0.0302644)
(-0.850485 -0.166056 -0.0339946)
(-0.844525 -0.166342 -0.0325378)
(-0.838614 -0.166696 -0.031566)
(-0.833529 -0.168183 -0.0303434)
(-0.829001 -0.163647 -0.0287197)
(-0.861546 -0.159792 -0.0302644)
(-0.850485 -0.159389 -0.0339946)
(-0.844525 -0.159675 -0.0325378)
(-0.838614 -0.160029 -0.031566)
(-0.833529 -0.161517 -0.0303434)
(-0.829001 -0.15698 -0.0287197)
(-0.861546 -0.153126 -0.0302644)
(-0.850485 -0.152723 -0.0339946)
(-0.844525 -0.153008 -0.0325378)
(-0.838614 -0.153362 -0.031566)
(-0.833529 -0.15485 -0.0303434)
(-0.829001 -0.150313 -0.0287197)
(-0.861546 -0.146459 -0.0302644)
(-0.850485 -0.146056 -0.0339946)
(-0.844525 -0.146342 -0.0325378)
(-0.838614 -0.146696 -0.031566)
(-0.833529 -0.148183 -0.0303434)
(-0.829001 -0.143647 -0.0287197)
(-0.861546 -0.139792 -0.0302644)
(-0.850485 -0.139389 -0.0339946)
(-0.844525 -0.139675 -0.0325378)
(-0.838614 -0.140029 -0.031566)
(-0.833529 -0.141517 -0.0303434)
(-0.829001 -0.13698 -0.0287197)
(-0.861546 -0.133126 -0.0302644)
(-0.850485 -0.132723 -0.0339946)
(-0.844525 -0.133008 -0.0325378)
(-0.838614 -0.133362 -0.031566)
(-0.833529 -0.13485 -0.0303434)
(-0.829001 -0.130313 -0.0287197)
(-0.861546 -0.126459 -0.0302644)
(-0.850485 -0.126056 -0.0339946)
(-0.844525 -0.126342 -0.0325378)
(-0.838614 -0.126696 -0.031566)
(-0.833529 -0.128183 -0.0303434)
(-0.829001 -0.123647 -0.0287197)
(-0.861546 -0.119792 -0.0302644)
(-0.850485 -0.119389 -0.0339946)
(-0.844525 -0.119675 -0.0325378)
(-0.838614 -0.120029 -0.031566)
(-0.833529 -0.121517 -0.0303434)
(-0.829001 -0.11698 -0.0287197)
(-0.861546 -0.113126 -0.0302644)
(-0.850485 -0.112723 -0.0339946)
(-0.844525 -0.113008 -0.0325378)
(-0.838614 -0.113362 -0.031566)
(-0.833529 -0.11485 -0.0303434)
(-0.829001 -0.110313 -0.0287197)
(-0.861546 -0.106459 -0.0302644)
(-0.850485 -0.106056 -0.0339946)
(-0.844525 -0.106342 -0.0325378)
(-0.838614 -0.106696 -0.031566)
(-0.833529 -0.108184 -0.0303434)
(-0.829001 -0.103647 -0.0287197)
(-0.861546 -0.0997926 -0.0302644)
(-0.850485 -0.0993894 -0.0339946)
(-0.844525 -0.0996752 -0.0325378)
(-0.838614 -0.100029 -0.031566)
(-0.833529 -0.101517 -0.0303434)
(-0.829001 -0.0969802 -0.0287197)
(-0.861546 -0.0931259 -0.0302644)
(-0.850485 -0.0927228 -0.0339946)
(-0.844525 -0.0930086 -0.0325378)
(-0.838614 -0.0933626 -0.031566)
(-0.833529 -0.0948503 -0.0303434)
(-0.829001 -0.0903135 -0.0287197)
(-0.861546 -0.0864593 -0.0302644)
(-0.850485 -0.0860561 -0.0339946)
(-0.844525 -0.0863419 -0.0325378)
(-0.838614 -0.0866959 -0.031566)
(-0.833529 -0.0881836 -0.0303434)
(-0.829001 -0.0836469 -0.0287197)
(-0.861546 -0.0797926 -0.0302644)
(-0.850485 -0.0793894 -0.0339946)
(-0.844525 -0.0796753 -0.0325378)
(-0.838614 -0.0800293 -0.031566)
(-0.833529 -0.0815169 -0.0303434)
(-0.829001 -0.0769802 -0.0287197)
(-0.861546 -0.0731259 -0.0302644)
(-0.850485 -0.0727228 -0.0339946)
(-0.844525 -0.0730086 -0.0325378)
(-0.838614 -0.0733626 -0.031566)
(-0.833529 -0.0748503 -0.0303434)
(-0.829001 -0.0703135 -0.0287197)
(-0.861546 -0.0664593 -0.0302644)
(-0.850485 -0.0660561 -0.0339946)
(-0.844525 -0.0663419 -0.0325378)
(-0.838614 -0.0666959 -0.031566)
(-0.833529 -0.0681836 -0.0303434)
(-0.829001 -0.0636469 -0.0287197)
(-0.861546 -0.0597926 -0.0302644)
(-0.850485 -0.0593894 -0.0339946)
(-0.844525 -0.0596753 -0.0325378)
(-0.838614 -0.0600292 -0.031566)
(-0.833529 -0.0615169 -0.0303434)
(-0.829001 -0.0569802 -0.0287197)
(-0.861546 -0.0531259 -0.0302644)
(-0.850485 -0.0527228 -0.0339946)
(-0.844525 -0.0530086 -0.0325378)
(-0.838614 -0.0533626 -0.031566)
(-0.833529 -0.0548503 -0.0303434)
(-0.829001 -0.0503135 -0.0287197)
(-0.861546 -0.0464593 -0.0302644)
(-0.850485 -0.0460561 -0.0339946)
(-0.844525 -0.0463419 -0.0325378)
(-0.838614 -0.0466959 -0.031566)
(-0.833529 -0.0481836 -0.0303434)
(-0.829001 -0.0436469 -0.0287197)
(-0.861546 -0.0397926 -0.0302644)
(-0.850485 -0.0393894 -0.0339946)
(-0.844525 -0.0396753 -0.0325378)
(-0.838614 -0.0400292 -0.031566)
(-0.833529 -0.0415169 -0.0303434)
(-0.829001 -0.0369802 -0.0287197)
(-0.861546 -0.0331259 -0.0302644)
(-0.850485 -0.0327228 -0.0339946)
(-0.844525 -0.0330086 -0.0325378)
(-0.838614 -0.0333626 -0.031566)
(-0.833529 -0.0348503 -0.0303434)
(-0.829001 -0.0303136 -0.0287197)
(-0.861546 -0.0264593 -0.0302644)
(-0.850485 -0.0260561 -0.0339946)
(-0.844525 -0.0263419 -0.0325378)
(-0.838614 -0.0266959 -0.031566)
(-0.833529 -0.0281836 -0.0303434)
(-0.829001 -0.0236469 -0.0287197)
(-0.861546 -0.0197926 -0.0302644)
(-0.850485 -0.0193894 -0.0339946)
(-0.844525 -0.0196753 -0.0325378)
(-0.838614 -0.0200292 -0.031566)
(-0.833529 -0.0215169 -0.0303434)
(-0.829001 -0.0169802 -0.0287197)
(-0.861546 -0.0131259 -0.0302644)
(-0.850485 -0.0127228 -0.0339946)
(-0.844525 -0.0130086 -0.0325378)
(-0.838614 -0.0133626 -0.031566)
(-0.833529 -0.0148503 -0.0303434)
(-0.829001 -0.0103135 -0.0287197)
(-0.861546 -0.00645924 -0.0302644)
(-0.850485 -0.00605609 -0.0339946)
(-0.844525 -0.0063419 -0.0325378)
(-0.838614 -0.00669589 -0.031566)
(-0.833529 -0.00818358 -0.0303434)
(-0.829001 -0.00364686 -0.0287197)
(-0.861546 0.000207424 -0.0302644)
(-0.850485 0.000610567 -0.0339946)
(-0.844525 0.000324757 -0.0325378)
(-0.838614 -2.92335e-05 -0.031566)
(-0.833529 -0.00151691 -0.0303434)
(-0.829001 0.00301979 -0.0287197)
(-0.861546 0.00687408 -0.0302644)
(-0.850485 0.00727722 -0.0339946)
(-0.844525 0.00699141 -0.0325378)
(-0.838614 0.00663742 -0.031566)
(-0.833529 0.00514974 -0.0303434)
(-0.829001 0.00968645 -0.0287197)
(-0.861546 0.0135407 -0.0302644)
(-0.850485 0.0139439 -0.0339946)
(-0.844525 0.0136581 -0.0325378)
(-0.838614 0.0133041 -0.031566)
(-0.833529 0.0118164 -0.0303434)
(-0.829001 0.0163531 -0.0287197)
(-0.861546 0.0202074 -0.0302644)
(-0.850485 0.0206106 -0.0339946)
(-0.844525 0.0203247 -0.0325378)
(-0.838614 0.0199707 -0.031566)
(-0.833529 0.0184831 -0.0303434)
(-0.829001 0.0230198 -0.0287197)
(-0.861546 0.0268741 -0.0302644)
(-0.850485 0.0272772 -0.0339946)
(-0.844525 0.0269914 -0.0325378)
(-0.838614 0.0266374 -0.031566)
(-0.833529 0.0251497 -0.0303434)
(-0.829001 0.0296865 -0.0287197)
(-0.861546 0.0335407 -0.0302644)
(-0.850485 0.0339439 -0.0339946)
(-0.844525 0.0336581 -0.0325378)
(-0.838614 0.0333041 -0.031566)
(-0.833529 0.0318164 -0.0303434)
(-0.829001 0.0363531 -0.0287197)
(-0.861546 0.0402074 -0.0302644)
(-0.850485 0.0406106 -0.0339946)
(-0.844525 0.0403247 -0.0325378)
(-0.838614 0.0399708 -0.031566)
(-0.833529 0.0384831 -0.0303434)
(-0.829001 0.0430198 -0.0287197)
(-0.861546 0.0468741 -0.0302644)
(-0.850485 0.0472772 -0.0339946)
(-0.844525 0.0469914 -0.0325378)
(-0.838614 0.0466374 -0.031566)
(-0.833529 0.0451497 -0.0303434)
(-0.829001 0.0496865 -0.0287197)
(-0.861546 0.0535407 -0.0302644)
(-0.850485 0.0539439 -0.0339946)
(-0.844525 0.0536581 -0.0325378)
(-0.838614 0.0533041 -0.031566)
(-0.833529 0.0518164 -0.0303434)
(-0.829001 0.0563531 -0.0287197)
(-0.861546 0.0602074 -0.0302644)
(-0.850485 0.0606106 -0.0339946)
(-0.844525 0.0603247 -0.0325378)
(-0.838614 0.0599708 -0.031566)
(-0.833529 0.0584831 -0.0303434)
(-0.829001 0.0630198 -0.0287197)
(-0.861546 0.0668741 -0.0302644)
(-0.850485 0.0672772 -0.0339946)
(-0.844525 0.0669914 -0.0325378)
(-0.838614 0.0666374 -0.031566)
(-0.833529 0.0651497 -0.0303434)
(-0.829001 0.0696864 -0.0287197)
(-0.861546 0.0735407 -0.0302644)
(-0.850485 0.0739439 -0.0339946)
(-0.844525 0.0736581 -0.0325378)
(-0.838614 0.0733041 -0.031566)
(-0.833529 0.0718164 -0.0303434)
(-0.829001 0.0763531 -0.0287197)
(-0.861546 0.0802074 -0.0302644)
(-0.850485 0.0806106 -0.0339946)
(-0.844525 0.0803247 -0.0325378)
(-0.838614 0.0799707 -0.031566)
(-0.833529 0.0784831 -0.0303434)
(-0.829001 0.0830198 -0.0287197)
(-0.861546 0.0868741 -0.0302644)
(-0.850485 0.0872773 -0.0339946)
(-0.844525 0.0869914 -0.0325378)
(-0.838614 0.0866375 -0.031566)
(-0.833529 0.0851498 -0.0303434)
(-0.829001 0.0896865 -0.0287197)
(-0.861546 0.0935408 -0.0302644)
(-0.850485 0.093944 -0.0339946)
(-0.844525 0.0936582 -0.0325378)
(-0.838614 0.0933042 -0.031566)
(-0.833529 0.0918165 -0.0303434)
(-0.829001 0.0963532 -0.0287197)
(-0.861546 0.100208 -0.0302644)
(-0.850485 0.100611 -0.0339946)
(-0.844525 0.100325 -0.0325378)
(-0.838614 0.0999709 -0.031566)
(-0.833529 0.0984832 -0.0303434)
(-0.829001 0.10302 -0.0287197)
(-0.861546 0.106874 -0.0302644)
(-0.850485 0.107277 -0.0339946)
(-0.844525 0.106992 -0.0325378)
(-0.838614 0.106638 -0.031566)
(-0.833529 0.10515 -0.0303434)
(-0.829001 0.109687 -0.0287197)
(-0.861546 0.113541 -0.0302644)
(-0.850485 0.113944 -0.0339946)
(-0.844525 0.113658 -0.0325378)
(-0.838614 0.113304 -0.031566)
(-0.833529 0.111817 -0.0303434)
(-0.829001 0.116353 -0.0287197)
(-0.861546 0.120208 -0.0302644)
(-0.850485 0.120611 -0.0339946)
(-0.844525 0.120325 -0.0325378)
(-0.838614 0.119971 -0.031566)
(-0.833529 0.118483 -0.0303434)
(-0.829001 0.12302 -0.0287197)
(-0.861546 0.126874 -0.0302644)
(-0.850485 0.127277 -0.0339946)
(-0.844525 0.126992 -0.0325378)
(-0.838614 0.126638 -0.031566)
(-0.833529 0.12515 -0.0303434)
(-0.829001 0.129687 -0.0287197)
(-0.861546 0.133541 -0.0302644)
(-0.850485 0.133944 -0.0339946)
(-0.844525 0.133658 -0.0325378)
(-0.838614 0.133304 -0.031566)
(-0.833529 0.131817 -0.0303434)
(-0.829001 0.136353 -0.0287197)
(-0.861546 0.140208 -0.0302644)
(-0.850485 0.140611 -0.0339946)
(-0.844525 0.140325 -0.0325378)
(-0.838614 0.139971 -0.031566)
(-0.833529 0.138483 -0.0303434)
(-0.829001 0.14302 -0.0287197)
(-0.861546 0.146874 -0.0302644)
(-0.850485 0.147277 -0.0339946)
(-0.844525 0.146992 -0.0325378)
(-0.838614 0.146638 -0.031566)
(-0.833529 0.14515 -0.0303434)
(-0.829001 0.149687 -0.0287197)
(-0.861546 0.153541 -0.0302644)
(-0.850485 0.153944 -0.0339946)
(-0.844525 0.153658 -0.0325378)
(-0.838614 0.153304 -0.031566)
(-0.833529 0.151817 -0.0303434)
(-0.829001 0.156353 -0.0287197)
(-0.861546 0.160208 -0.0302644)
(-0.850485 0.160611 -0.0339946)
(-0.844525 0.160325 -0.0325378)
(-0.838614 0.159971 -0.031566)
(-0.833529 0.158483 -0.0303434)
(-0.829001 0.16302 -0.0287197)
(-0.861546 0.166874 -0.0302644)
(-0.850485 0.167277 -0.0339946)
(-0.844525 0.166992 -0.0325378)
(-0.838614 0.166638 -0.031566)
(-0.833529 0.16515 -0.0303434)
(-0.829001 0.169687 -0.0287197)
(-0.861546 0.173541 -0.0302644)
(-0.850485 0.173944 -0.0339946)
(-0.844525 0.173658 -0.0325378)
(-0.838614 0.173304 -0.031566)
(-0.833529 0.171817 -0.0303434)
(-0.829001 0.176353 -0.0287197)
(-0.861546 0.180208 -0.0302644)
(-0.850485 0.180611 -0.0339946)
(-0.844525 0.180325 -0.0325378)
(-0.838614 0.179971 -0.031566)
(-0.833529 0.178483 -0.0303434)
(-0.829001 0.18302 -0.0287197)
(-0.861546 0.186874 -0.0302644)
(-0.850485 0.187277 -0.0339946)
(-0.844525 0.186992 -0.0325378)
(-0.838614 0.186638 -0.031566)
(-0.833529 0.18515 -0.0303434)
(-0.829001 0.189687 -0.0287197)
(-0.861546 0.193541 -0.0302644)
(-0.850485 0.193944 -0.0339946)
(-0.844525 0.193658 -0.0325378)
(-0.838614 0.193304 -0.031566)
(-0.833529 0.191817 -0.0303434)
(-0.829001 0.196353 -0.0287197)
(-0.861546 0.200208 -0.0302644)
(-0.850485 0.200611 -0.0339946)
(-0.844525 0.200325 -0.0325378)
(-0.838614 0.199971 -0.031566)
(-0.833529 0.198483 -0.0303434)
(-0.829001 0.20302 -0.0287197)
(-0.861546 0.206874 -0.0302644)
(-0.850485 0.207277 -0.0339946)
(-0.844525 0.206992 -0.0325378)
(-0.838614 0.206638 -0.031566)
(-0.833529 0.20515 -0.0303434)
(-0.829001 0.209687 -0.0287197)
(-0.861546 0.213541 -0.0302644)
(-0.850485 0.213944 -0.0339946)
(-0.844525 0.213658 -0.0325378)
(-0.838614 0.213304 -0.031566)
(-0.833529 0.211817 -0.0303434)
(-0.829001 0.216353 -0.0287197)
(-0.861546 0.220208 -0.0302644)
(-0.850485 0.220611 -0.0339946)
(-0.844525 0.220325 -0.0325378)
(-0.838614 0.219971 -0.031566)
(-0.833529 0.218483 -0.0303434)
(-0.829001 0.22302 -0.0287197)
(-0.861546 0.226874 -0.0302644)
(-0.850485 0.227277 -0.0339946)
(-0.844525 0.226992 -0.0325378)
(-0.838614 0.226638 -0.031566)
(-0.833529 0.22515 -0.0303434)
(-0.829001 0.229687 -0.0287197)
(-0.861546 0.233541 -0.0302645)
(-0.850485 0.233944 -0.0339945)
(-0.844525 0.233658 -0.0325378)
(-0.838614 0.233304 -0.031566)
(-0.833529 0.231817 -0.0303434)
(-0.829001 0.236353 -0.0287197)
(-0.861546 0.240208 -0.0302644)
(-0.850485 0.240611 -0.0339945)
(-0.844525 0.240325 -0.0325378)
(-0.838614 0.239971 -0.031566)
(-0.833529 0.238483 -0.0303434)
(-0.829001 0.24302 -0.0287197)
(-0.861546 0.246874 -0.0302644)
(-0.850485 0.247277 -0.0339946)
(-0.844525 0.246991 -0.0325379)
(-0.838614 0.246638 -0.031566)
(-0.833529 0.24515 -0.0303435)
(-0.829001 0.249687 -0.0287199)
(-0.861546 0.253541 -0.0302644)
(-0.850485 0.253945 -0.0339947)
(-0.844525 0.253659 -0.032538)
(-0.838614 0.253304 -0.0315662)
(-0.833529 0.251817 -0.0303436)
(-0.829001 0.256354 -0.0287198)
(-0.861546 0.260208 -0.0302653)
(-0.850485 0.260613 -0.033994)
(-0.844525 0.260326 -0.0325374)
(-0.838614 0.259972 -0.0315659)
(-0.833529 0.258484 -0.0303435)
(-0.829001 0.263022 -0.0287184)
(-0.861543 0.266875 -0.0302657)
(-0.850483 0.267273 -0.0339925)
(-0.844525 0.26699 -0.0325343)
(-0.838614 0.266638 -0.0315633)
(-0.833529 0.265151 -0.0303416)
(-0.829003 0.269682 -0.028716)
(-0.861542 0.273533 -0.0302577)
(-0.850484 0.273915 -0.0339973)
(-0.844524 0.27364 -0.0325338)
(-0.838615 0.27329 -0.0315596)
(-0.833531 0.271807 -0.0303385)
(-0.829004 0.276328 -0.0287215)
(-0.861568 0.280185 -0.0302364)
(-0.850489 0.280587 -0.0340241)
(-0.844524 0.280303 -0.0325575)
(-0.838615 0.279948 -0.0315717)
(-0.833531 0.278456 -0.0303449)
(-0.828992 0.28302 -0.028753)
(-0.861628 0.286917 -0.0302523)
(-0.850502 0.287455 -0.0340742)
(-0.84453 0.28709 -0.0326233)
(-0.838614 0.286713 -0.0316307)
(-0.833521 0.285188 -0.0303888)
(-0.828957 0.28991 -0.0288239)
(-0.861575 0.293833 -0.0304594)
(-0.850572 0.294545 -0.034075)
(-0.844556 0.294009 -0.0326592)
(-0.838618 0.293632 -0.0317116)
(-0.8335 0.292129 -0.0304878)
(-0.828943 0.296903 -0.0288932)
(-0.861013 0.300573 -0.0310307)
(-0.850902 0.301262 -0.0337442)
(-0.844643 0.300549 -0.0323474)
(-0.838596 0.300217 -0.0315441)
(-0.833484 0.298965 -0.0305197)
(-0.829127 0.303051 -0.0287674)
(-0.859736 0.305658 -0.0321086)
(-0.852096 0.306555 -0.0324967)
(-0.844913 0.305712 -0.0310143)
(-0.838348 0.305378 -0.0303706)
(-0.833285 0.304509 -0.029963)
(-0.85166 0.309058 -0.0284412)
(-0.845108 0.308699 -0.027761)
(-0.838132 0.308347 -0.0273546)
(-0.831446 0.307799 -0.0271982)
(-0.855104 -0.304677 -0.0236834)
(-0.850699 -0.307794 -0.0225396)
(-0.84475 -0.309309 -0.0227361)
(-0.838096 -0.309437 -0.0227626)
(-0.831603 -0.308982 -0.0228588)
(-0.823066 -0.303833 -0.026513)
(-0.824434 -0.307565 -0.0235191)
(-0.818185 -0.305252 -0.0250385)