/*--------------------------------*- C++ -*----------------------------------*\
  =========                 |
  \\      /  F ield         | OpenFOAM: The Open Source CFD Toolbox
   \\    /   O peration     | Website:  https://openfoam.org
    \\  /    A nd           | Version:  13
     \\/     M anipulation  |
\*---------------------------------------------------------------------------*/
FoamFile
{
    format      ascii;
    class       polyBoundaryMesh;
    location    "constant/polyMesh";
    object      boundary;
}
// * * * * * * * * * * * * * * * * * * * * * * * * * * * * * * * * * * * * * //

8
(
    front
    {
        type            patch;
        nFaces          1000;
        startFace       885315;
    }
    back
    {
        type            patch;
        nFaces          1000;
        startFace       886315;
    }
    inlet
    {
        type            patch;
        nFaces          800;
        startFace       887315;
    }
    outlet
    {
        type            patch;
        nFaces          800;
        startFace       888115;
    }
    lower
    {
        type            patch;
        nFaces          2000;
        startFace       888915;
    }
    upper
    {
        type            patch;
        nFaces          2000;
        startFace       890915;
    }
    aircraftModel
    {
        type            wall;
        inGroups        List<word> 1(wall);
        nFaces          21657;
        startFace       892915;
    }
    horizontalStabiliser
    {
        type            wall;
        inGroups        List<word> 1(wall);
        nFaces          7038;
        startFace       914572;
    }
)

// ************************************************************************* //
