/*--------------------------------*- C++ -*----------------------------------*\
  =========                 |
  \\      /  F ield         | OpenFOAM: The Open Source CFD Toolbox
   \\    /   O peration     | Website:  https://openfoam.org
    \\  /    A nd           | Version:  12
     \\/     M anipulation  |
\*---------------------------------------------------------------------------*/
FoamFile
{
    format      ascii;
    class       polyBoundaryMesh;
    location    "constant/polyMesh";
    object      boundary;
}
// * * * * * * * * * * * * * * * * * * * * * * * * * * * * * * * * * * * * * //

7
(
    front
    {
        type            patch;
        nFaces          600;
        startFace       233250;
    }
    back
    {
        type            patch;
        nFaces          600;
        startFace       233850;
    }
    inlet
    {
        type            patch;
        nFaces          225;
        startFace       234450;
    }
    outlet
    {
        type            patch;
        nFaces          225;
        startFace       234675;
    }
    lower
    {
        type            patch;
        nFaces          600;
        startFace       234900;
    }
    upper
    {
        type            patch;
        nFaces          600;
        startFace       235500;
    }
    aircraftModel
    {
        type            wall;
        inGroups        List<word> 1(wall);
        nFaces          12190;
        startFace       236100;
    }
)

// ************************************************************************* //
