/*--------------------------------*- C++ -*----------------------------------*\
  =========                 |
  \\      /  F ield         | OpenFOAM: The Open Source CFD Toolbox
   \\    /   O peration     | Website:  https://openfoam.org
    \\  /    A nd           | Version:  12
     \\/     M anipulation  |
\*---------------------------------------------------------------------------*/
FoamFile
{
    format      ascii;
    class       polyBoundaryMesh;
    location    "constant/polyMesh";
    object      boundary;
}
// * * * * * * * * * * * * * * * * * * * * * * * * * * * * * * * * * * * * * //

7
(
    front
    {
        type            patch;
        nFaces          600;
        startFace       417537;
    }
    back
    {
        type            patch;
        nFaces          600;
        startFace       418137;
    }
    inlet
    {
        type            patch;
        nFaces          450;
        startFace       418737;
    }
    outlet
    {
        type            patch;
        nFaces          450;
        startFace       419187;
    }
    lower
    {
        type            patch;
        nFaces          1200;
        startFace       419637;
    }
    upper
    {
        type            patch;
        nFaces          1200;
        startFace       420837;
    }
    aircraftModel
    {
        type            wall;
        inGroups        List<word> 1(wall);
        nFaces          22609;
        startFace       422037;
    }
)

// ************************************************************************* //
