/*--------------------------------*- C++ -*----------------------------------*\
  =========                 |
  \\      /  F ield         | OpenFOAM: The Open Source CFD Toolbox
   \\    /   O peration     | Website:  https://openfoam.org
    \\  /    A nd           | Version:  13
     \\/     M anipulation  |
\*---------------------------------------------------------------------------*/
FoamFile
{
    format      ascii;
    class       polyBoundaryMesh;
    location    "constant/polyMesh";
    object      boundary;
}
// * * * * * * * * * * * * * * * * * * * * * * * * * * * * * * * * * * * * * //

8
(
    front
    {
        type            patch;
        nFaces          1000;
        startFace       822634;
    }
    back
    {
        type            patch;
        nFaces          1000;
        startFace       823634;
    }
    inlet
    {
        type            patch;
        nFaces          800;
        startFace       824634;
    }
    outlet
    {
        type            patch;
        nFaces          800;
        startFace       825434;
    }
    lower
    {
        type            patch;
        nFaces          2000;
        startFace       826234;
    }
    upper
    {
        type            patch;
        nFaces          2000;
        startFace       828234;
    }
    aircraftModel
    {
        type            wall;
        inGroups        List<word> 1(wall);
        nFaces          17692;
        startFace       830234;
    }
    horizontalStabiliser
    {
        type            wall;
        inGroups        List<word> 1(wall);
        nFaces          6953;
        startFace       847926;
    }
)

// ************************************************************************* //
