/*--------------------------------*- C++ -*----------------------------------*\
  =========                 |
  \\      /  F ield         | OpenFOAM: The Open Source CFD Toolbox
   \\    /   O peration     | Website:  https://openfoam.org
    \\  /    A nd           | Version:  13
     \\/     M anipulation  |
\*---------------------------------------------------------------------------*/
FoamFile
{
    format      ascii;
    class       scalarField;
    location    "0";
    object      magU_upstreamTailZone;
}
// * * * * * * * * * * * * * * * * * * * * * * * * * * * * * * * * * * * * * //


1345
(
6.505152104
5.169921858
4.896075335
5.623738532
4.292553389
4.75332164
5.536358996
5.565868557
5.713269727
5.726864277
5.822028724
5.830793067
5.902059991
5.916515796
6.051944116
6.064982997
6.164369434
6.173086535
6.23085589
6.23523257
6.254605589
6.254699005
6.236857283
6.232749902
6.177068668
6.168526848
6.072419584
6.058950386
5.918097609
5.896233133
5.642240942
5.601133223
4.039289699
1.955688604
5.204728573
6.603141665
5.638308011
3.174958049
4.263666377
5.498904944
5.648034692
4.457918967
5.661871977
5.759206985
5.770981269
5.859638562
5.868019367
5.934540828
5.949695657
6.084939203
6.098673907
6.198002234
6.207570286
6.265781824
6.270574825
6.29010012
6.290198841
6.272243747
6.267730843
6.211720752
6.202392798
6.106049412
6.091528234
5.952249841
5.929693295
5.70605185
5.679079472
4.616340635
4.233945742
5.427363688
3.631615921
3.611750239
5.762686685
3.502632417
5.5341469
4.042419207
3.820577729
1.834569757
5.160991811
5.359203413
3.137187783
4.264289608
4.454761762
4.360877105
4.248712243
5.396843397
3.658268332
3.527472122
4.411899919
3.187036619
3.878373787
3.996526778
1.434300291
3.721885573
4.204750131
5.312006679
4.586483415
4.943718605
5.388936924
4.750882445
5.032122703
5.636707032
5.1137321
5.220271526
5.654193464
5.169579131
5.260783198
5.770316276
5.289190759
5.345678196
5.781863241
5.322122275
5.372012562
5.860445555
5.386033158
5.425573597
5.86864438
5.407098622
5.463323213
5.987530725
5.495077526
5.555871052
6.000733198
5.537947508
5.592517208
6.113915486
5.608858806
5.652890946
6.125360483
5.639632655
5.677144251
6.20286958
5.686970715
5.712401563
6.209480612
5.705207108
5.724542454
6.247994879
5.728829462
5.736441553
6.250197001
5.734923919
5.73656551
6.250890165
5.735396317
5.725688383
6.248894669
5.729568898
5.713870788
6.212349637
5.707149143
5.679451384
6.206071481
5.689248878
5.655323686
6.130598855
5.642094109
5.594327471
6.119670839
5.61153065
5.557016788
6.001896525
5.53493009
5.461614607
5.985674054
5.490347204
5.401609425
5.795677826
5.349931481
5.166295254
5.765683534
5.263518595
5.041033219
5.399574503
4.800049489
3.970132249
5.276278681
4.637767237
3.695807591
4.49812089
4.04560864
7.009989949
8.174872418
5.589829365
7.129383325
5.958210572
5.607956478
5.486040201
5.657166421
5.702253498
5.442047825
5.430042375
5.714181656
5.437408654
5.415628261
5.81005573
5.436289159
5.468178905
5.821887943
5.504160537
5.472856664
5.894277329
5.507713495
5.533098189
5.902291822
5.567714052
5.537521689
5.576240303
5.641003781
6.035951299
5.701169236
5.649850913
6.146868629
5.708529426
5.758306232
6.159312916
5.805151118
5.76526767
6.237286713
5.810410492
5.841632447
6.244510371
5.867931417
5.845665763
6.283288023
5.870629595
5.883981686
6.285702068
5.889960152
5.885372262
6.28641497
5.890089635
5.885994759
6.284217294
5.872098036
5.884879625
6.247437362
5.869725158
5.848170458
6.240556034
5.814049491
5.844503761
6.16472947
5.809030009
5.769544478
6.152856381
5.714533555
5.763110403
6.035290145
5.706680713
5.649210415
6.018030005
5.575133543
5.640164408
5.83458417
5.564066651
5.476778095
5.806431256
5.412746704
5.471764033
5.596683449
5.450211409
5.614158042
5.570196028
6.00872798
5.666955342
3.457143381
6.877396202
5.118067719
6.887624273
5.696104685
4.543668933
5.610449619
4.333904253
6.159701803
6.887568335
3.767396077
6.782501655
5.337521558
2.358810555
7.038715716
2.740050154
6.560240796
4.545738615
5.730585729
5.525092428
6.022492247
6.732325406
6.579194542
4.577983475
5.795934878
6.152957381
5.158195544
2.313164134
4.71823957
2.780683724
5.79101947
4.698227281
4.533768383
4.326363934
3.150279328
3.803425237
3.772162245
1.438083102
3.635817303
3.599350142
4.42312814
3.966016659
7.937722207
5.207095967
2.370276924
6.920577503
2.773694035
5.251654906
5.780455513
6.057296331
5.072183517
2.302374967
4.802892909
3.270499381
4.117886519
1.399775594
2.605662045
2.585998123
7.278329003
8.126090534
7.682836074
7.407510158
6.063251521
6.780628778
4.613520021
4.369558168
4.080970673
2.768783719
1.122288381
2.493818795
4.028638318
2.894296587
2.935750089
5.092502871
3.720397865
4.334395603
3.845368004
4.964979208
4.370230355
4.474979243
5.519309795
4.264343559
3.557412361
6.450277006
6.408560698
4.481709876
5.52058284
5.227837045
5.710946898
6.411753775
6.504508626
4.52058625
5.620269495
4.075519943
2.931137468
3.01117349
4.682496874
2.741129054
2.777478046
3.967119764
3.068046554
5.693775725
4.643192591
4.4914424
4.997364048
3.662862055
4.293766939
7.159494659
4.392834416
3.124066791
2.423020306
1.461100239
1.788810383
2.13693654
6.217852038
5.320901764
3.324116932
2.603531955
3.515260128
4.48230574
7.260801385
6.161195774
5.959437628
6.996351465
7.273758354
6.491221694
7.128983515
4.987866788
2.331079356
1.615404366
1.493370762
2.041858215
5.269868271
3.178912133
4.457560398
4.723569133
3.212596201
4.044254048
1.307187152
2.551900374
2.50292058
7.790229237
4.275936064
2.992324119
2.400332967
1.491000677
1.719914794
1.990510678
6.160257911
5.318504192
3.357015498
2.675625895
3.565762668
4.517482913
7.446496297
7.110916417
6.892971763
7.161715569
5.33055769
5.558892971
5.958594939
6.370799381
7.011169703
5.011082544
2.349712321
1.559072668
1.527324375
1.895801142
2.662139952
1.104571856
2.425722314
2.739106385
3.894477306
3.004348935
5.132838476
6.097825985
5.804237364
5.000465694
4.758096898
4.747107596
4.979640159
5.875836769
4.795565871
3.947171576
3.087234631
3.260086785
4.387617578
5.022876831
4.670467732
5.370115194
5.494447374
5.310267921
5.41253543
5.592839167
5.448970706
5.599120992
5.692118776
5.575513444
5.614351822
5.742840679
5.631358083
5.716242897
5.807480286
5.701291158
5.725717987
5.842224108
5.737143029
5.795229958
5.888487828
5.781213391
5.810387618
5.944509602
5.838136804
5.945642446
6.032427354
5.927388061
5.958231782
6.083887457
5.975747157
6.052610445
6.150840186
6.039852622
6.061169074
6.184913991
6.072273115
6.116265781
6.223726055
6.109565133
6.120581387
6.240762063
6.125778697
6.139092575
6.253741703
6.13828176
6.139181556
6.254033736
6.138554107
6.122093538
6.242123972
6.127051287
6.118028912
6.225928038
6.111604518
6.064642932
6.188683478
6.075601439
6.056175141
6.155261815
6.043646909
5.963630423
6.090833052
5.981106419
5.950181164
6.038747027
5.930950963
5.812403236
5.944012131
5.837605637
5.789615535
5.861058724
5.755957117
5.51523786
5.689540405
5.569011072
5.459767781
5.546257268
5.389295067
3.724532664
4.732080563
4.348783847
4.953236633
5.454713562
5.045981308
3.417583609
2.768550485
2.614837411
4.875444665
3.84312424
4.2812148
5.54484268
6.435777189
6.150928201
5.633324533
5.681847875
5.6963154
4.953064846
4.501203803
4.98422001
5.675631394
5.678818618
5.678450813
5.742567355
5.723980889
5.712280134
5.784566696
5.735080609
5.745413746
5.846554135
5.811213443
5.801067926
5.877831728
5.820459586
5.828799472
5.921449708
5.884460886
5.873027257
5.976067236
6.067176128
6.02803867
6.011717408
6.116522348
6.043789339
6.060335503
6.185020979
6.141765912
6.129929448
6.218973392
6.15233463
6.162769042
6.258927143
6.209675101
6.203423946
6.275892384
6.214973918
6.219823171
6.289265434
6.23419723
6.23343181
6.289565525
6.23430029
6.233728572
6.277295911
6.216628626
6.221224943
6.261184896
6.211613636
6.205655537
6.222871326
6.156532968
6.166689245
6.189659659
6.146230872
6.134633074
6.123693048
6.051822368
6.067867256
6.07220036
6.035971216
6.018423327
5.976655172
5.901398404
5.923144396
5.8965267
5.877756347
5.848046414
5.741783507
5.690104737
5.712474514
5.647949661
5.678677648
5.674621349
4.831721339
4.432619008
5.053334323
5.95671348
5.541814721
6.17920491
3.874359022
3.469249783
3.745284957
6.031582383
5.336254906
5.421277796
3.763065277
3.635103025
3.904831608
4.89145318
5.777800371
4.711436271
3.741419233
2.918742492
3.119621062
3.55412242
4.475453776
4.136899461
4.887035438
5.386290351
4.977375298
3.342667607
2.730312093
2.532665467
4.861594988
3.861652614
4.298983932
4.918469606
4.495912805
4.934087029
4.836612396
4.43869445
5.0256103
5.882820541
5.440209253
6.084234512
3.806187559
3.441741638
3.684532771
4.614634507
4.347317249
4.429989446
4.088916557
3.618024782
4.04761743
3.93721414
3.853141331
3.572492781
3.680270453
3.312220307
3.290736588
4.246302809
4.300821489
4.466683879
5.195503969
5.033339691
4.878997703
4.516579432
4.806698638
4.660603632
5.176681427
4.919269444
5.113028185
5.44906374
5.150025778
5.240330907
4.794435173
4.934256325
5.02872384
5.229514486
5.04308377
5.268796106
5.613186268
5.507205743
5.477110253
5.107899941
5.335741496
5.30444058
5.438111476
5.221157837
5.415308685
5.67609091
5.529920775
5.556131262
5.171652866
5.364532424
5.39088085
5.456829833
5.258167749
5.473542687
5.754126177
5.660850153
5.643408801
5.292028078
5.504310481
5.488403841
5.560625297
5.349663579
5.546557724
5.797461821
5.673663084
5.690166747
5.31907524
5.518558503
5.533729114
5.5714448
5.368290687
5.582493236
5.849713769
5.754311059
5.74434811
5.389999621
5.601675951
5.59136271
5.642922953
5.425430169
5.630758509
5.88014222
5.762109876
5.773547242
5.404340179
5.610545223
5.621374138
5.659947264
5.454486712
5.679785125
5.963144459
5.882130235
5.85722351
5.504018419
5.720114924
5.702402732
5.784052927
5.566189056
5.770825542
6.020240641
5.895874103
5.915161242
5.527111271
5.738845598
5.753278315
5.800977701
5.583181101
5.81329627
6.096542676
6.004239149
5.98800112
5.617128288
5.840489246
5.829153749
5.886691202
5.659701366
5.877798214
6.140808128
6.015434029
6.029984127
5.632193783
5.854874592
5.865033289
5.897874514
5.670997373
5.905600618
6.192553011
6.089435746
6.079762953
5.692223759
5.922107841
5.915386896
5.947926695
5.716002856
5.943268741
6.218228258
6.095935469
6.104148887
5.700800291
5.930539941
5.936247026
5.953524863
5.72172578
5.957136001
6.244040224
6.13272847
6.129011578
5.730835338
5.963915556
5.961330717
5.970319456
5.736822526
5.969745052
6.252599177
6.13489974
6.137156641
5.733718158
5.966727139
5.96829973
5.970408294
5.736993053
5.969988226
6.253083556
6.135547065
6.137611701
5.734141401
5.967313291
5.968724585
5.954893645
5.722810765
5.95830747
6.245169702
6.133571478
6.13006538
5.731628939
5.964695806
5.962286591
5.949541236
5.717537977
5.945106447
6.220745889
6.098564507
6.106475237
5.702686923
5.932890071
5.938361588
5.90097482
5.673469528
5.908594854
6.196078991
6.092348379
6.082927511
5.694472276
5.924731396
5.918197861
5.889895901
5.662022186
5.881154384
6.145545712
6.019871131
6.034004981
5.634693511
5.858657333
5.86855555
5.805235628
5.585670438
5.817596967
6.103008699
6.009011286
5.993230044
5.619577602
5.844493405
5.833389988
5.787743569
5.566197038
5.774048991
6.023936905
5.89503881
5.916102533
5.525313984
5.739627147
5.754752236
5.659471338
5.451685549
5.678221629
5.961733049
5.878676356
5.855655674
5.500232741
5.718387048
5.701667863
5.628945886
5.414624581
5.606242006
5.83404513
5.688650829
5.726653353
5.338782135
5.538604879
5.565875144
5.353785167
5.168248555
5.399549693
5.7237144
5.654561705
5.610797783
5.270703474
5.491407587
5.457645424
5.278110568
5.021259655
5.21094949
5.486632313
5.185690844
5.303500976
4.854446946
4.985490533
5.100281525
3.800852326
4.167288977
4.219397494
5.081905234
5.014152121
4.760442516
4.495342527
4.803270667
4.572115475
3.358487627
3.682987495
3.249951558
3.813303316
3.975388911
3.511368338
5.573964035
5.844548044
5.965422457
7.102468442
6.562813404
6.564073364
5.981224106
6.191963316
6.213210944
5.620293615
5.76861218
5.72225439
5.631111382
5.500439249
5.664933742
5.818230733
5.598092569
5.723576099
5.687147344
5.686985658
5.681514347
5.613840923
5.444887072
5.604111752
5.598710876
5.4202285
5.599570301
5.730135745
5.693747049
5.702773074
5.620103377
5.421496864
5.611718166
5.600708669
5.42869669
5.605422355
5.79549121
5.768122846
5.756090964
5.628975842
5.450695775
5.637052518
5.656871651
5.452865874
5.646934827
5.836312464
5.779855992
5.790940315
5.698349369
5.491007568
5.688751544
5.668092322
5.486972178
5.678272106
5.885042107
5.844953935
5.837186259
5.70749037
5.518641431
5.714716848
5.72971474
5.521402973
5.722746168
5.912796038
5.854703135
5.864066589
5.764643729
5.556309868
5.755432577
5.738373472
5.549946848
5.746239348
5.780199406
5.603895021
5.615673427
6.054200933
5.996774568
5.907291986
5.678784357
5.891083217
5.672308466
5.876675753
6.13018941
6.090821394
6.075548476
5.921660926
5.730492353
5.937932989
5.967237156
5.738129436
5.951989063
6.174123634
6.104488625
6.117964331
6.016878505
5.789140276
6.004879671
5.980052033
5.78323781
5.993639861
6.227362987
6.181131933
6.172056751
6.026823163
5.824648726
6.037439891
6.05539596
5.829291578
6.046174572
6.252916441
6.189115358
6.196786823
6.083296202
5.859428573
6.076934113
6.062898902
5.856082455
6.070695772
6.27948448
6.227266461
6.223797095
6.088284006
5.877236485
6.0932262
6.100504897
5.879260686
6.096968063
6.288014482
6.229938463
6.232049594
6.107257536
5.888974909
6.106482715
6.103024726
5.888223564
6.105176372
6.288515943
6.23064719
6.232555549
6.107361624
5.889216887
6.10676925
6.103713575
5.888728299
6.105674982
6.280646162
6.228198636
6.224951516
6.089883683
5.87855981
6.094594158
6.101418835
5.880287453
6.098088648
6.255496655
6.192004904
6.199343147
6.085174486
5.861388336
6.079074966
6.065642643
5.858396662
6.073149497
6.230963641
6.1843778
6.175641933
6.030775384
5.828078758
6.041141555
6.058476058
5.832383059
6.049549951
6.179073365
6.10990607
6.122968939
6.021092633
5.793089184
6.009273415
5.985026795
5.787406924
5.998318709
6.136875941
6.096855583
6.08230984
5.928183239
5.736226888
5.94444198
5.972765949
5.743331985
5.957994575
6.056321068
5.982136375
6.001177165
5.913316454
5.683099804
5.89558524
5.860279748
5.6746425
5.879451261
5.995291139
5.963514755
5.94303402
5.782509387
5.603741638
5.804023817
5.842914538
5.61299231
5.822411853
5.869619353
5.79068368
5.820911901
5.76117013
5.525773174
5.730962521
5.67778651
5.515980969
5.707807259
5.770327048
5.764061051
5.735366603
5.598843324
5.442107301
5.615811442
5.656690806
5.434410143
5.629724056
5.62283488
5.733840605
5.689918139
5.604131128
5.444797226
5.615403764
5.765956133
5.54876184
5.669212831
5.533422554
5.844007475
6.055807164
6.009038348
6.501501499
6.432942042
5.939295641
5.246390743
5.34393978
3.700239302
3.586331819
3.852405139
5.220699987
5.485404056
5.623117738
6.788874022
6.321196684
6.260315748
5.697820155
5.950326191
5.919845752
4.753495209
4.622295415
4.770925856
4.748427802
5.715010353
5.025758775
4.42694674
4.486262144
4.673821564
6.16670831
5.754935204
5.578194258
4.597339703
4.96448831
4.9838079
5.900448615
5.35451836
5.449343633
4.637072588
4.994051219
5.065231355
6.202710334
5.406045938
5.613669981
5.41672668
5.652864258
6.05594948
4.266257352
5.006805266
4.291947184
3.150185354
2.596004688
3.458145552
6.102456625
5.13932609
5.377371401
4.987572129
4.742361862
5.012653455
4.766841567
4.654888904
4.941515551
4.531828414
4.271845515
4.351777686
4.009568489
3.545849604
3.972085214
3.770547092
3.738750802
3.447506561
3.590052938
3.235537891
3.197726708
3.252963436
3.591579584
3.164152311
3.736801438
3.899773939
3.434356926
5.226521359
5.529643879
5.749242375
5.749639619
6.274464319
6.158002386
4.905844434
4.451446935
4.652219787
4.514224146
4.382040409
4.535996607
4.305475699
4.342651127
4.469452409
4.318512547
4.730743025
4.280751142
3.758004502
3.919769135
3.947645377
4.502189464
4.136694888
4.211674443
3.659815294
4.030381626
4.047494672
4.797084569
4.74064754
4.515406145
4.332309166
4.560459652
4.369134668
4.687173732
4.555665038
4.704547649
4.670214284
5.630971933
4.950977183
4.353928675
4.413872675
4.603421321
6.000613769
5.67513011
5.479145524
4.591335795
4.859162375
4.916220114
5.723141768
5.217559663
5.33529759
7.098995115
6.133275293
5.886099021
4.632209112
4.913334479
5.012765779
6.039561361
5.292989909
5.51375328
4.209550819
4.923953844
4.214493656
3.094896248
2.514616505
3.38160473
5.149089816
3.047528383
4.344001361
6.007613118
5.065666699
5.302453767
4.914513233
4.696157751
4.950439985
4.709909213
4.609921905
4.882267409
4.235427242
4.660733126
4.218515503
3.722035045
3.878983761
3.905320693
4.448754959
4.09926942
4.163604275
)


// ************************************************************************* //
