/*--------------------------------*- C++ -*----------------------------------*\
  =========                 |
  \\      /  F ield         | OpenFOAM: The Open Source CFD Toolbox
   \\    /   O peration     | Website:  https://openfoam.org
    \\  /    A nd           | Version:  13
     \\/     M anipulation  |
\*---------------------------------------------------------------------------*/
FoamFile
{
    format      binary;
    class       polyBoundaryMesh;
    location    "constant/polyMesh";
    object      boundary;
}
// * * * * * * * * * * * * * * * * * * * * * * * * * * * * * * * * * * * * * //

7
(
    front
    {
        type            patch;
        nFaces          160;
        startFace       5264;
    }
    back
    {
        type            patch;
        nFaces          160;
        startFace       5424;
    }
    inlet
    {
        type            patch;
        nFaces          96;
        startFace       5584;
    }
    outlet
    {
        type            patch;
        nFaces          96;
        startFace       5680;
    }
    lower
    {
        type            patch;
        nFaces          240;
        startFace       5776;
    }
    upper
    {
        type            patch;
        nFaces          240;
        startFace       6016;
    }
    horizontalStabiliser
    {
        type            wall;
        inGroups        List<word> 1(wall);
        nFaces          0;
        startFace       6256;
    }
)

// ************************************************************************* //
